11
File written by ORCA
Au   -2.287524   -8.417994   13.056098
Au   -0.410218   -5.497247   11.606304
Au    2.070431   -6.491898   11.615406
Au    2.082258   -8.903055   13.013198
Au   -0.403067  -10.314762   13.122549
Au   -3.023926   -6.213384   11.576307
Au   -2.295930   -8.472606   10.168826
Au   -0.395208  -10.354466   10.149915
Au    1.729458  -11.366496   11.649941
Au    2.096555   -8.923201   10.240182
Cr   -0.124753   -8.087375   11.598401
