13
File written by ORCA
Au   -8.131791   -1.708563    7.756767
Au   -7.623464   -4.318726    8.224831
Au  -10.397845   -4.906553    8.612398
Au  -11.402462   -2.525455    7.843028
Au  -10.210141   -0.133524    8.551619
Au   -9.432701   -3.614890    6.183224
Au  -12.022400   -3.496631   10.380733
Au   -8.432440   -4.729313   10.988320
Au   -8.477465   -6.770399    9.259272
Au   -7.625369   -2.841172   12.727383
Au   -6.870082   -2.368150   10.141040
Au  -10.336564   -3.241235   12.453083
Mn   -9.600199   -2.398989    9.954597
