13
Coordinates from ORCA-job pbe
  Au  7.46315347553874     10.81213891255715      8.63606316581345
  Au  6.59219291232900      9.38493843503287     10.75436443599614
  Au  7.53723716820547      6.72396048901735     10.93692707064864
  Au  9.69534317086714      6.91757661477869      9.11640383332783
  Au  5.12340637798260      6.97991546860777      9.66637139100493
  Au  9.69583945939747      9.09908848179318      7.59031542228423
  Au  7.17390548866208      5.36826636910336      8.41617175952592
  Au  8.24128073230430      6.72663967533169      6.34277030353432
  Au  8.77603733901725     11.35396984597569      6.28164933480375
  Au  6.85815908652709      9.30078402072689      6.16987451730378
  Au  9.19447476680507      8.80456708794824      4.81503422587878
  Au  4.94604232174279      9.19195824534282      8.06990336437125
  Cr  7.34549978062069      8.06085440378405      8.56310945550673
