13
Coordinates from ORCA-job pbe
  Au  9.12135269055102      6.78725147716599      6.00282030356757
  Au  4.81974671754429      6.43873427056884      7.65725934126742
  Au  5.30520362655271      9.29460728635605      7.23722481802230
  Au  6.56983649806549      7.06974041267661      5.48550039121228
  Au  3.89101710242945      7.72750756789290      5.46953946373037
  Au  4.10097555652118      5.99439101130980     10.22476000839999
  Au  6.73232772670218      5.51452572655899      9.55912987592397
  Au  9.23009896767037      5.69581206076895      8.78590543703792
  Au  11.38015098694592      6.77193311185220      7.51649626988059
  Au  5.39360263739372      8.38257245255427      9.78251005886983
  Au  7.47265815531041     10.00654104912212      8.85014311017517
  Au  9.79058548420912      8.86494536162804      8.32387753446716
  Mn  7.49886605010392      7.53610511154514      7.97165230744524
