13
Coordinates from ORCA-job pbe
  Au  5.59777411048904      9.70011307801382      4.11854782759576
  Au  8.55176942532532      8.86483909572561      8.15768228086340
  Au  5.40176400500085     10.52477673555378      6.83771097088549
  Au  3.77182835766422      8.51765216471625      7.85538874551495
  Au  5.97502619780480      9.30294072912315      9.28213075911794
  Au  4.25209072854494      7.58885128837839      5.28974563335929
  Au  4.59713670159975      5.94541258126088      7.48250651483337
  Au  7.08898207046350      6.79972201332261      9.24177033969887
  Au  6.40395775147583      4.26032257010668      8.67181488351988
  Au  7.20011291053509      5.47943584866486      6.32257088641268
  Au  6.98586383887464      7.29637553814228      4.40781881694016
  Au  7.92613679044221      9.87854768625453      5.74656632554237
  Fe  6.37578974177965      7.99017621073672      6.89151828571563
