15
File written by ORCA
Au  -11.688426   -1.702492    8.002188
Au   -8.187941   -3.685506   10.633222
Au   -9.002019   -5.906399    9.467238
Au   -7.280743   -4.078174    7.971898
Au  -11.210975   -6.575932    8.005091
Au   -8.233929   -3.691801    5.324302
Au  -12.590052   -4.224308    8.006954
Au   -9.021159   -5.910868    6.514394
Au   -9.365187   -1.346145    9.365931
Au   -7.884724   -1.197399   11.665940
Au   -6.569531   -1.634660    9.278438
Au   -9.363231   -1.353201    6.636765
Au   -7.949802   -1.202198    4.289698
Au   -6.570690   -1.646537    6.636811
Cr   -9.975440   -3.836394    7.994926
