17
Coordinates from ORCA-job pbe
  Au  10.59605768614399     10.59674404489354      9.64747123430695
  Au  11.19711089938862      8.26988083755088      6.29458838146278
  Au  9.65101360035347      6.10739615007119      7.06803782225587
  Au  8.03673981854185      6.52104172613675      9.52346761684510
  Au  7.47025971465238      4.48124884755207      7.43807530089472
  Au  5.37197537835270      5.60314321283225      8.88277016024102
  Au  5.68796557198439      8.29437118214911      9.35328595059740
  Au  10.38964200102154      7.92649135461598      8.96626139832106
  Au  8.09948756783973      9.45546998608621      9.53755449972832
  Au  9.40627340933356     10.24709208041194      7.17742093007777
  Au  8.64714345169569      8.48308932542403      5.23842310435813
  Au  7.83887228865942      5.80673221453812      4.93427847308091
  Au  5.99334581967271      7.98292566455943      4.75016570710190
  Au  5.14049542164085      5.50479570342997      6.02132057206225
  Au  4.32288390352115      8.08661210082431      6.97460532949959
  Au  6.65273108232961      9.79672933715602      7.00857893509050
  Cr  6.97173868486850      7.15675762176808      7.16619025407590
