17
Coordinates from ORCA-job pbe
  Au  9.94210416133350      7.24549501616997      8.53772881138660
  Au  8.60827479149480      4.79244999982924      8.45392886266443
  Au  4.27843881562122      8.19486849271011      5.51766676236519
  Au  6.18143978315276      6.30876222477986      4.66917809334080
  Au  9.15942352004850      9.40137842592751      7.01870872354652
  Au  6.99421794123662      8.95520497537528      5.30285960384519
  Au  8.40211201404349      6.72081307557996      6.28072151907761
  Au  6.77749957772078      4.30435360362846      6.55980727545494
  Au  4.30530800578908      5.65074161004886      6.64695502646848
  Au  5.05305967749189     10.29896303002507      7.05075225780710
  Au  4.17536368855334      7.91127217294829      8.33034017156922
  Au  8.12178107424067      6.59578867519693     10.52984812484209
  Au  5.99240276286750      5.84263171576098      8.85950196613544
  Au  5.89089343269895      8.24693277295193     10.46962924356949
  Au  8.49653392047706      9.31916100880446      9.92242527992451
  Au  7.29430390133475     11.16314342191548      8.21620812635841
  Mn  6.84400089189125      8.40523629833639      7.96473659163855
