13
File written by ORCA
Au   12.497289    1.830429    1.663304
Au   14.480749    3.786221    1.657429
Au   12.579211   -0.046250   -0.402376
Au   12.596934    3.704472   -0.402753
Au   16.443388    1.811907    1.661908
Au   14.478904    3.787030   -2.464847
Au   16.361918    3.684680   -0.406375
Au   16.342603   -0.062536   -0.404818
Au   16.440954    1.809192   -2.473170
Au   14.458849   -0.146487   -2.465411
Au   12.497313    1.829491   -2.468172
Au   14.460886   -0.145463    1.658532
Fe   14.470180    1.820234   -0.402134
