16
Coordinates from ORCA-job pbe
  Au  9.50064692598981      7.40294098350824      5.87004114153097
  Au  7.57391835331089      5.47622169684134      5.91214891200011
  Au  6.72502385025125     10.85907982659237      8.22107340284178
  Au  4.97975092606507      8.53017861012607      8.31249478074403
  Au  5.19522095207395      6.93706700995788      6.05136035872429
  Au  6.34916108016385      9.39923000337591      5.91269231939936
  Au  5.93466035373463      5.32382797854030      8.12079964643941
  Au  8.53579366015794      7.39654979632576     10.38480108109831
  Au  10.41008620493204      8.11857452412751      8.41850835841209
  Au  7.60873985964803      4.79181674975834     10.22643334966506
  Au  9.23664188040145      5.59858207833259      8.15287878493985
  Au  8.95897394292319      9.93562542887157      6.78514570447715
  Au  5.63740116263071      6.79920096233409     10.41976968283723
  Au  6.43232898191883      9.40034516252160     10.56640731871308
  Au  8.96707931296006     10.08205383055869      9.65566466765444
  Mn  7.51902026283755      7.73749780822694      7.83688254052210
