11
Coordinates from ORCA-job pbe
  Au  5.48657639242320      8.04851720067826      9.13420025642564
  Au  9.48322017938032      9.81250033464676      8.14161987560741
  Au  5.42009372015953      8.95747864791923      6.19982002930010
  Au  4.21599537494244     10.32329010005275      8.23393840858428
  Au  6.93105594443579     10.54829417426365      8.07126698699545
  Au  6.95479092241376      7.14617527968075      5.00392288731170
  Au  9.97517868831958      7.21968936549608      8.45100285793546
  Au  7.24821864038450      6.12189590644601      9.34790673437175
  Au  9.47631316378044      4.56997827453583      8.87754989357317
  Au  8.47725931975991      5.63222618306107      6.56967401251620
  Mn  7.58414611400039      8.00226004321955      7.48849446737868
