13
File written by ORCA
Au  -14.380377    5.227536    9.835361
Au   -9.923855    3.450985   11.710965
Au  -12.522908    3.642984   11.132861
Au   -8.139035    3.321827    9.682940
Au  -14.562475    2.276693    9.853012
Au   -9.344831    5.531070    8.166530
Au  -11.841439    5.938835    9.106643
Au  -12.151595    1.227520    9.113385
Au  -13.137913    3.656569    7.852653
Au   -9.621399    1.289251    8.180164
Au   -8.042889    3.314949    6.942992
Au  -10.794801    3.484020    6.537591
Mn  -10.743638    3.499573    9.165234
