13
Coordinates from ORCA-job pbe
  Au  7.46850451443133      9.29627718104779     10.07640005763498
  Au  7.62072101184876      6.97826483807014      8.73577685484512
  Au  6.14546578410943      6.78175922051774      6.28935158917793
  Au  8.48385979914126      5.14011971219825      6.89928959174272
  Au  10.47029233380553      6.75152184343699      7.86180022670439
  Au  8.64490518051238      7.74192909331057      5.71303731951053
  Au  11.67075835236949      8.94632128393849      8.94639548962244
  Au  10.70608083933642     11.35887229677871      7.59223836722671
  Au  9.84655185170081     10.70151253280651     10.16425083960408
  Au  7.94645481381602     11.51204066315642      8.08323312902412
  Au  10.93838439817972      9.09779543198409      6.02192058775553
  Au  6.58626357880483      9.32252913046776      7.19410147429520
  Mn  9.16588346194377      9.12759664228626      8.02166042285592
