17
Coordinates from ORCA-job pbe
  Au  9.78570135508243     10.62004649306734      6.26503871756603
  Au  7.26906620865436     11.54235028600728      6.85680892944494
  Au  7.78276217122998     10.78108487637945      4.19397010542853
  Au  5.21330668321547     10.51200203345246      5.18392272500721
  Au  10.39038343549932      8.00199331600414      6.94292389705184
  Au  6.68074873547820      8.21179515809060      4.45030919129106
  Au  8.46017758677363      6.40449447703028      5.70050799246111
  Au  9.45150283749200      8.60490267126439      4.30901799250278
  Au  8.68292588807842      6.55974214771369      8.60098683229264
  Au  8.25690675546074      9.32558497364201      8.23289099672920
  Au  7.06870099193216      4.62306069508305      7.43860432301152
  Au  6.50055084661687      7.89214349471572      9.83556561922619
  Au  4.06033525678060      7.30892278935684      8.54575382158883
  Au  5.75290869623689      5.70265028439750      5.19228177179298
  Au  5.46770128882767      9.68328216503753      7.86460842998998
  Au  4.23500312416913      7.99284021743223      5.85758335147984
  Fe  6.38891972847227      7.17717130132493      7.29781179313522
