17
Coordinates from ORCA-job pbe
  Au  8.63053369318345      8.36460379036207      5.07917422252992
  Au  6.39245954810866      9.55101544838118      6.16288818341452
  Au  10.92473627760366      7.00197403197132      5.99065477600182
  Au  8.65483595562740      5.47645136996969      5.77436207261600
  Au  6.29137137073193      6.85598503291944      5.47082985957837
  Au  9.68036054764615      5.76957654864137      8.38476989511042
  Au  6.96458297117060      5.53221337939701      8.00476318396606
  Au  5.05229951950859      7.54977334802923      7.85028382519173
  Au  8.00948308786292      9.94157143271656     10.54049860214882
  Au  9.57163892230625      7.62520623976904     10.41428364350956
  Au  5.83568829555701      9.98401365796801      8.87044357018914
  Au  6.85495800838259      7.42614119702636     10.00423971620300
  Au  10.49727566226046      9.70037758107174      6.59712395296559
  Au  10.47129202986468     10.20311873320953      9.33522755668712
  Au  8.26046168760505     10.84639772847124      7.71775693825446
  Au  11.61408685904066      7.80664586890960      8.53330538145126
  Cr  8.34168897353952      8.10279145118616      7.79816577018186
