13
File written by ORCA
Au    7.658228    4.919302   13.301832
Au    8.968047    2.783250   11.922374
Au    7.771039    8.016589    9.610038
Au    9.179794    6.575202   11.637064
Au    6.201595    2.878032   11.920975
Au    6.256375    6.678349   11.637128
Au    5.900025    6.066486    8.950562
Au    5.786602    3.228943    9.275984
Au    9.494148    5.934492    8.950266
Au    7.733713    7.043661    6.991084
Au    9.399716    3.096401    9.275131
Au    7.635367    4.325229    7.456568
Cr    7.648904    4.671426   10.508854
