13
File written by ORCA
Au    7.510683   13.325745   -5.079457
Au    8.894625   11.923285   -3.006039
Au    7.497453    9.662171   -8.212078
Au    8.964785   11.672135   -6.805663
Au    6.126568   11.930166   -2.998132
Au    6.039566   11.680976   -6.800278
Au    5.698041    8.989886   -6.199952
Au    5.690875    9.289619   -3.357326
Au    9.294569    8.978752   -6.201396
Au    7.488321    7.034530   -7.262174
Au    9.306400    9.277873   -3.358931
Au    7.492229    7.475369   -4.537864
Cr    7.502130   10.530650   -4.856690
