11
File written by ORCA
Au    3.629439  -12.822776    0.847562
Au    2.731861  -15.420880   -2.689983
Au    4.332991  -11.243330   -1.692434
Au    6.195786  -12.399620   -0.065806
Au    4.805506  -14.088099   -1.698230
Au    1.937520  -10.654711   -2.683156
Au    0.340910  -14.834961   -1.689751
Au    1.045323  -13.250878    0.848040
Au   -1.520614  -13.681382   -0.060100
Au   -0.136667  -11.993303   -1.699566
Mn    2.336391  -13.038413   -1.474466
