15
Coordinates from ORCA-job pbe
  Au  6.79408222081253      5.54209987533550      7.59963524488567
  Au  8.85393815008736      5.86059817993899      5.75469474058738
  Au  7.44992406903661      8.12633629172554      4.75162982987684
  Au  5.48674009240727      7.88609056018061      6.59922926031556
  Au  10.19581171829081      8.02162713104135      4.64585308946158
  Au  11.02286994485848      7.54612510770021      7.22969319321643
  Au  9.40655500764730      5.64420597415069      8.45653361050755
  Au  7.37003047559845      7.52065576972446      9.91676514315354
  Au  5.59122637552489      9.54099387534763      8.94020465453510
  Au  6.97867552315815     10.23540226071169      6.59011323844834
  Au  10.04759394785511      8.04327920043950      9.74751790666982
  Au  8.31436743880874     10.10735783602735      9.04524304384450
  Au  4.83650701497191      6.82543931430044      9.07242490653964
  Au  9.76981046832715     10.02031951329333      6.64681386890647
  Fe  8.25116054261492      7.92095549008246      7.38505906905119
