13
Coordinates from ORCA-job pbe
  Au  7.03347486641662      5.68852255052657     10.18500973877087
  Au  5.41284255209417      6.54318636997307      7.99988086517326
  Au  8.11000860810153      6.78383269838740      7.21157540192244
  Au  6.84091144197729      8.57495778355035      9.25462495287533
  Au  7.04426171551914      4.17587018642833      7.90382441255631
  Au  12.00408888597271      9.26364412600151      9.44893677353216
  Au  11.58313441393235      6.42447133650882      9.64280581904423
  Au  7.95330316523821      7.53768223042597     11.87590229421358
  Au  10.54689105021426      8.26513186345996     11.60786272592973
  Au  10.39756071159535      8.13676194731895      7.48595449220479
  Au  9.52474512350082      4.80377837422605      9.00910572152843
  Au  9.18885155838452      9.94435157291150      9.60512044554188
  Fe  9.15950760705279      7.36973970028174      9.56790585670697
