17
File written by ORCA
Au    3.181590   -5.951361   14.590160
Au    0.840823   -2.669730   12.604642
Au    0.938412   -4.337984   14.830955
Au    1.821023   -1.691672   15.020754
Au    3.250925   -0.943201   12.753211
Au    4.649339   -1.726627   15.024251
Au    3.213064   -3.732382   16.354905
Au    5.472333   -4.397228   14.832519
Au    5.384301   -4.074704   10.096636
Au    5.604829   -2.727603   12.604798
Au    4.645185   -1.371255   10.358875
Au    1.840553   -1.338530   10.364880
Au    1.027287   -4.023258   10.100924
Au    1.537080   -5.550608   12.418108
Au    3.184333   -5.865976   10.200579
Au    4.836978   -5.583398   12.418255
Cr    3.214003   -3.469274   11.485435
