17
File written by ORCA
Au   -2.284658  -13.278451    7.065793
Au   -2.303462  -11.930215    9.482939
Au   -4.499546  -11.735326    7.820137
Au   -3.034774  -10.336767    4.280176
Au   -4.333737  -12.692250    5.140518
Au   -5.465724  -10.233326    5.657038
Au   -1.693675  -12.796601    4.380341
Au    0.093270  -11.998881    6.386985
Au   -4.052656   -7.896858    5.263389
Au   -1.413134   -8.057940    4.510447
Au   -1.956383   -7.661827    7.218245
Au   -2.148299   -9.140059    9.552467
Au   -4.343840   -8.963097    7.888504
Au    0.258967   -9.171550    6.467284
Au    0.076852  -10.646541    8.800682
Au   -0.239333  -10.492245    3.991712
Fe   -2.101987  -10.470421    7.099326
