17
File written by ORCA
Au   -2.095720  -13.259875    7.158631
Au   -1.654942  -11.970157    9.567580
Au   -4.059059  -11.591829    8.262679
Au   -3.055171  -10.210813    4.558917
Au   -4.367737  -12.494779    5.576985
Au   -5.236298   -9.979176    6.292410
Au   -1.886980  -12.755542    4.420901
Au    0.234189  -12.124701    6.141027
Au   -3.741769   -7.732614    5.717822
Au   -1.264352   -8.050102    4.568233
Au   -1.362187   -7.682306    7.332170
Au   -1.299290   -9.198735    9.648866
Au   -3.704282   -8.838298    8.342501
Au    0.604422   -9.317142    6.231829
Au    0.677079  -10.830966    8.546256
Au   -0.353203  -10.543859    3.844548
Fe   -1.717171  -10.471599    7.200376
