11
File written by ORCA
Au    5.686841   11.353422   -4.965039
Au    2.932875   10.912509   -3.902133
Au    4.866910   12.466390   -2.626476
Au    3.575958   13.628484   -4.728579
Au    5.641045   10.413247   -7.474751
Au    3.196642    9.541198   -8.299523
Au    0.909429    8.263125   -8.008621
Au    3.845611   12.145604   -8.966965
Au    2.963050   14.053862   -7.284291
Au    1.752162    9.555349   -5.801483
Mn    3.427020   11.554370   -6.417937
