11
Coordinates from ORCA-job pbe
  Au  9.84359401033519      8.38895712994871      9.42490767604887
  Au  7.45628909118125      6.89365595831425      9.67445281982776
  Au  7.88366847489649      8.79248975889149      7.42943556216209
  Au  11.01320854058375      7.55957457204087      6.98657250688535
  Au  10.58625102881656      5.66454090985649      9.22736139943004
  Au  9.63238349337969      3.86722478149108      7.52460322862175
  Au  10.05915802470751      5.76570590356327      5.27914600895009
  Au  6.93138627659181      6.99403208335869      5.72603116613676
  Au  6.50433165678970      5.09955611372942      7.96724999591867
  Au  7.67278743394555      4.26956868450274      5.52835493708892
  Fe  8.75856807877246      6.32998722430297      7.47729512892965
