11
Coordinates from ORCA-job pbe
  Au  4.62203549029559      6.71972164439928      5.57499400197006
  Au  8.54277646393769      9.14109433215079      5.89105269066013
  Au  7.08283117910278     11.41376798388911      5.49773179172138
  Au  5.54481690556141      9.14396019299651      5.20895026227337
  Au  9.04716737684890      6.55309489303659      6.23306069111828
  Au  6.94672992293087      4.94906369974735      6.51876288021522
  Au  6.70223911016025     10.13496900760028      7.87777676998308
  Au  5.11074315340805      5.94781162303410      8.50730618945176
  Au  5.97494675952685      8.22223612403762      9.57292866483176
  Au  4.33193225046388      4.17183859929818      6.58627501375277
  Mn  6.67973150776353      7.57608494980995      7.04370962402207
