15
File written by ORCA
Au   -0.263708  -11.171523    8.815407
Au    2.325618  -12.175321    6.006239
Au    1.928381  -12.822204    8.722921
Au    3.034235   -9.179541   11.055803
Au    0.157973  -10.561756    6.093068
Au    4.047582  -11.696487   10.433526
Au    4.527687  -12.060896    7.765289
Au    2.325597   -7.714322    8.798207
Au    1.352847  -11.426604   11.067224
Au    4.009187   -9.918630    6.002070
Au    1.842119   -8.303615    6.078375
Au    0.307679   -8.894482   10.553620
Au   -0.297418   -8.450337    7.913859
Au    4.531107   -9.348214    8.711381
Fe    2.123648  -10.262021    7.998626
