17
Coordinates from ORCA-job pbe
  Au  4.47003171973038      6.57935895984648      6.89145957819871
  Au  6.19472874443775      6.40756529109959      4.69286617047649
  Au  6.89848535569431      5.13762204203088      7.02938685392159
  Au  7.34035357289347      8.98471391141874      4.65862942952119
  Au  4.54566522662129      8.72840405286748      5.19634830298194
  Au  8.75168791578718      6.97552388210512      5.80896006210574
  Au  8.37027060273450      9.45285519952250      7.17932863034773
  Au  6.06270053197917     10.83400473524338      6.29074581227500
  Au  5.96251359101367      8.14220443751458      9.92842920536853
  Au  8.63137077711108      8.97008835749671      9.97918780899085
  Au  8.00274504834603      6.26010831553032      9.37395389620990
  Au  3.24773178845762      7.46249842162144      9.29466613115378
  Au  6.54269749164906     10.66097269154916      9.00665986227939
  Au  5.36110473769728      5.51704322539564      9.32820122273345
  Au  9.61910083800140      4.92135212521871      7.46570868851420
  Au  10.14467397113236      7.56884465936344      8.15446278665581
  Mn  4.64083613671458      9.12954592217556      7.80728377826446
