17
Coordinates from ORCA-job pbe
  Au  9.20032906087047      6.91177351019603      9.28599281940016
  Au  7.72615172921824      5.56015104432427      7.30344169317621
  Au  6.51815882134563      7.65931872452473      9.08935840888350
  Au  10.39938723895234      6.69732297075517      6.83911791720814
  Au  9.38124958842431     10.60361182169024      7.03903897029144
  Au  8.49651455209364      9.59838364440305      9.42158836814575
  Au  9.80553575771070      8.72826617907567      4.99253078322060
  Au  6.03556545645988      6.24753038650283      5.06783058873648
  Au  5.30913948654887      9.03936009446881      5.21474836861880
  Au  3.42865823423499      7.03696821848721      5.58340807539312
  Au  5.01484671769435      5.86286666783819      7.61792527096851
  Au  4.29365105042033      8.62841216716051      7.76365303587820
  Au  7.32943552289060      8.16079547444843      3.50328388409640
  Au  8.74646990117564      6.12585587790751      4.71213351640598
  Au  7.60785755474790     10.50302448433341      4.93452798187352
  Au  6.50499573689391     10.24473558661283      7.54021801609313
  Fe  8.15790102031811      8.19413304727084      6.99617689160984
