13
File written by ORCA
Au    6.296489   -8.217002    9.223830
Au    9.815999   -6.822978   10.985227
Au   10.263885   -8.500966    6.353775
Au    7.635012   -7.055038    5.438625
Au    8.359070   -9.517088    4.631369
Au    6.251495   -5.997981    7.556906
Au    7.817230   -9.536584    7.334472
Au   11.155733   -7.915953    8.775192
Au    8.822561   -9.149938    9.877757
Au    7.266224   -5.777776   10.150649
Au    9.616995   -4.643087    9.132950
Au    8.628696   -4.802703    6.628558
Cr    8.715605   -7.024699    8.176246
