17
File written by ORCA
Au    8.108696   -2.642933    8.404547
Au    8.593020   -4.254158   10.548777
Au    8.457603    0.083344    8.199210
Au   11.935908   -1.205310   11.562268
Au   10.592477   -3.454363   12.309962
Au   10.958823    0.198094    9.346135
Au   10.643675   -2.595381    9.499868
Au    9.603840   -0.978046   13.335118
Au    7.923303   -3.247338   13.041642
Au    6.410703   -2.419086   10.830333
Au   10.838294    1.257193   12.026310
Au    5.873841   -0.965612    8.536568
Au    6.481685    0.589815   10.716948
Au    8.881239    1.989456   10.140894
Au    6.678425   -0.831721   13.144341
Au    8.189832    1.413692   12.792904
Cr    8.806007   -0.932289   10.748985
