15
Coordinates from ORCA-job pbe
  Au  8.21477866488107      8.12151010566024      4.66135722820988
  Au  5.96306477803991      9.47485405776774      5.60947840369974
  Au  10.11819098546781      8.17727814317673      6.81078946715324
  Au  8.62555082287382     10.46458517988527      6.15768797922739
  Au  7.25945575026820      5.75225812816907      5.53866266686139
  Au  6.59858150668370     11.05930475616374      7.90853338190000
  Au  4.95968830007300      6.97053882181584      6.54349721052531
  Au  4.41601554276485      9.32932512726763      7.92336537372695
  Au  7.83418954375397      7.03524802417652      9.82341960195486
  Au  9.16210763180589      5.80901952610961      7.68780771121998
  Au  6.48187545344714      5.10816006606897      8.16073982649906
  Au  4.98786016406842      7.04350817866372      9.40660927829451
  Au  6.34886771506533      9.36955438121954     10.10767381309548
  Au  8.83995893946512      9.54363389443866      8.88890197698323
  Mn  7.33823731134140      7.94104517941616      7.34089052064867
