15
File written by ORCA
Au  -10.620926    3.662890   -8.709045
Au   -7.615631    3.501481  -10.760183
Au   -9.244330    3.858238   -6.314239
Au   -7.240530    0.131583   -8.158299
Au   -7.272352    2.963425   -8.159848
Au   -7.564420   -0.409902  -10.760882
Au   -9.188381   -0.808518   -6.307625
Au   -7.640624    1.544713   -5.803117
Au  -10.557370   -0.650650   -8.709690
Au  -10.346525   -0.249085  -11.436554
Au  -10.371801    1.509972   -7.015064
Au  -10.392721    3.265773  -11.435925
Au   -8.546330    1.533347  -12.552003
Au  -11.905908    1.488032   -9.987088
Cr   -9.089361    1.525924   -9.698364
