11
Coordinates from ORCA-job pbe
  Au  7.05739117660478     10.41152181151435      9.40711831411108
  Au  5.47247120823474      6.64433263463185      9.76189208427049
  Au  4.30310860845909      9.11335133523052      9.48320330499782
  Au  4.93286620289862     11.24872315686524      7.74119343062356
  Au  8.23391106660244      7.94579737111487      9.68200159215198
  Au  7.66336387030647      5.49380618343053      8.39887169897597
  Au  7.12368926402213     10.09808921473296      6.37807104800485
  Au  4.36224592781637      8.79668759233351      6.45818698746587
  Au  5.53895867556302      6.33102667039068      6.73280581224464
  Au  8.29328385095644      7.62919534230203      6.65699546276869
  Fe  6.29812332853584      8.37126448745343      8.07002770438495
