13
File written by ORCA
Au   -9.429781   -2.679373  -11.301120
Au   -8.101139   -5.049878  -10.703504
Au  -10.325633   -2.154904   -6.885906
Au   -7.838003   -0.453806  -11.315215
Au   -9.280673   -0.841663   -9.042915
Au   -9.686005   -3.956704   -8.826705
Au   -5.399355   -1.763706  -11.341418
Au   -5.357301   -4.363952  -10.460199
Au   -6.702230   -4.823833   -8.139079
Au   -8.658958   -4.467380   -6.285321
Au   -7.434134   -2.113369   -7.142264
Au   -6.128125   -0.518720   -8.877071
Fe   -7.301288   -2.680320   -9.722619
