11
File written by ORCA
Au    6.766052   -6.810798  -10.447669
Au    5.418959   -4.087323   -7.061868
Au    5.377265   -6.706695   -7.840661
Au    8.617651   -9.001258  -10.117197
Au    9.476525   -7.336768   -5.968414
Au    6.198675   -9.104479   -8.746811
Au    7.506913   -4.649946   -8.794632
Au    7.390244   -5.702881   -6.049264
Au    9.500261   -6.111214   -9.920032
Au   10.513593   -8.236793   -8.342753
Fe    8.002820   -7.267533   -8.117071
