13
File written by ORCA
Au    7.001217    7.651548    8.276948
Au    4.809378    6.712458    9.870227
Au    6.289452    5.388597   12.385890
Au    4.805753    3.975732    9.759552
Au    7.043252    2.958424    8.338573
Au    6.302480    5.286720    7.239586
Au    8.638803    1.388637    9.896587
Au    6.998781    3.026252   11.350168
Au    9.395934    4.035014    9.835940
Au    9.394872    6.650602    9.792108
Au    8.628207    9.296103    9.735625
Au    7.050229    7.715109   11.298626
Cr    7.085163    5.340120    9.814137
