11
File written by ORCA
Au   10.465627    4.386555    1.711858
Au   14.140296   -0.793298    3.260443
Au   10.593688    1.605925    1.413998
Au   11.560777    0.114464    3.553614
Au   13.509040    1.275763    1.613990
Au   10.361871    1.994254    5.044986
Au   10.609967    4.748173    4.447353
Au   13.061309    3.920797    5.437188
Au   13.852214    1.509335    4.710747
Au   13.182240    3.862935    1.072419
Cr   12.044343    2.857332    3.231836
