11
File written by ORCA
Au   10.551271   -3.587666    2.738796
Au   13.661641    1.853371    4.596996
Au   10.498828   -0.805187    2.435342
Au   11.141129    0.754113    4.647515
Au   13.348461   -0.256792    2.911933
Au    9.948412   -1.210972    6.029920
Au   10.458377   -3.938252    5.477956
Au   12.734225   -2.929188    6.692743
Au   13.408566   -0.464854    6.028874
Au   13.269939   -2.861045    2.359436
Cr   11.857435   -1.944526    4.392649
