15
File written by ORCA
Au   -4.411197   14.501070    3.527367
Au   -2.126916   12.940246    2.965329
Au   -6.713471   12.966744    2.970352
Au   -4.423647   12.913199    1.223783
Au   -2.894196   13.383016    5.572660
Au   -5.934785   13.394955    5.577182
Au   -3.047886   10.482953    1.806694
Au   -6.696908   10.334716    4.352147
Au   -5.822546   10.497431    1.812356
Au   -6.725519   11.091006    7.011514
Au   -4.429168   10.070801    5.906593
Au   -2.118266   11.072896    7.000827
Au   -4.415047   12.522577    7.707067
Au   -2.165872   10.310183    4.343355
Fe   -4.425115   11.789592    3.819525
