13
File written by ORCA
Au   11.216914    7.453493   -6.024202
Au   10.277553    7.455286   -8.617560
Au   12.404692    5.118011   -5.078782
Au   13.056367    5.643887   -7.806009
Au   11.329920    5.049137   -9.784230
Au    8.566181    6.715343   -6.450805
Au    9.168594    3.566853  -10.797232
Au   10.980126    2.799959   -5.791911
Au   10.155772    2.695547   -8.398074
Au    8.391875    3.932121   -6.244687
Au    8.254365    5.117570   -8.706752
Au    9.114803    6.487953  -10.921108
Cr   10.625866    5.075895   -7.131361
