13
File written by ORCA
Au   12.221371   -8.066370   -1.799029
Au   10.987782  -10.526498   -1.983230
Au   12.526507   -6.957476    0.737968
Au   12.923821   -9.782553    0.729680
Au   10.832170  -11.477448    0.724098
Au    9.461611   -8.116387   -2.165721
Au    8.140136  -12.061107    1.278144
Au   10.221255   -7.214672    2.328870
Au    9.048771   -9.685752    2.288947
Au    8.245529   -7.537333    0.284796
Au    8.222507  -10.103521   -0.663947
Au    9.214928  -12.553030   -1.396534
Cr   10.592369   -8.791265    0.213181
