15
File written by ORCA
Au   10.022644   -3.691719   -0.434749
Au   13.630190   -5.228283    1.803760
Au   14.308524   -5.673750   -0.765087
Au   11.212203   -3.686347    1.999530
Au   12.906743   -3.208239   -0.138077
Au   14.132415   -3.578321   -2.682601
Au   11.603302   -2.507374   -2.554849
Au   13.990420   -6.267681   -3.445143
Au   11.481715   -6.282705    3.168141
Au    9.661967   -6.503252   -1.267127
Au   12.074591   -7.737698   -2.152783
Au   11.842980   -6.903632    0.460706
Au    9.530436   -4.334104   -3.067186
Au    9.402965   -5.787614    1.383173
Cr   11.927986   -5.110539   -2.008251
