11
File written by ORCA
Au   -3.911865   -1.759717  -12.151157
Au   -3.862319   -0.913226  -14.778243
Au   -6.397936    1.684906  -10.896261
Au   -5.350534    0.697819  -13.141781
Au   -2.449700    0.703467  -13.080249
Au   -2.547931    0.705438   -8.541739
Au   -4.034964   -0.916323   -6.912596
Au   -3.970977   -1.757224   -9.539676
Au   -5.445762    0.706041   -8.605700
Au   -1.498159    1.685731  -10.789557
Mn   -3.948532    0.620740  -10.843338
