13
Coordinates from ORCA-job pbe
  Au  5.32827470522803      9.56797562356032      7.32377377763729
  Au  7.57542257496605      9.30322624549135      5.41794941173771
  Au  4.96082935762575      7.14336526408614      8.35314805019422
  Au  7.02579744240882     10.23000664353510      9.39667779615224
  Au  7.24275580852240     11.63078581034831      6.99680370010728
  Au  6.86794735224755      7.72237070947017     10.46725463678898
  Au  8.77002488185644      5.00064859581578      7.55775271718273
  Au  10.17645841474836      7.34660766396036      7.63023190970158
  Au  9.34831920277601      8.76146313145482      9.84904674902283
  Au  8.30003124639184      6.74601319763566      5.49439180328864
  Au  9.44848607275199      9.96188854235235      7.33587157239025
  Au  6.68517422301568      5.24502307497062      9.31688687524777
  Cr  7.51196241746064      7.78497848731858      7.83674005054806
