11
Coordinates from ORCA-job pbe
  Au  5.26381570537296      6.53171758593348     10.17121522374314
  Au  9.96588510693257      7.66412844931873     10.35439786630169
  Au  10.47008870856158      5.10488662325612      9.98592594299183
  Au  8.56954396290723      3.31701931783913      9.06719840748135
  Au  5.93134849561542      4.04788826168334      9.14544318080403
  Au  7.02703448021709      8.46858702611864     10.45656045695653
  Au  9.04586702861588     10.16285839013388      9.73277887347891
  Au  8.42882813744590      8.12469836779267      7.94997298570310
  Au  9.12395913785276      5.51992274198216      7.42733025319157
  Au  6.45654757049924      6.26529460904456      7.51745913085712
  Cr  7.88147344597922      5.90604927689724      9.82422611849056
