17
File written by ORCA
Au   -4.647826    3.381986   12.990825
Au   -2.967660    1.789709   14.711003
Au   -0.684744    0.877965   13.361365
Au   -1.961654    3.139651   12.450543
Au   -2.375291   -1.203703   14.185568
Au   -4.235344   -0.327889   16.008698
Au   -6.076055    1.283343   11.787372
Au   -5.333789   -1.112865   13.564103
Au   -3.510633   -2.543081   12.001297
Au   -5.691832   -1.319533   10.856354
Au   -5.367335    0.800192    9.100375
Au   -1.123733   -1.220370   11.631901
Au   -3.141479   -0.739688    9.744288
Au   -3.826035    2.633552   10.413166
Au   -5.805798    1.441707   14.532800
Au   -1.345949    1.301344   10.460192
Mn   -3.411450    0.524592   12.232602
