13
Coordinates from ORCA-job pbe
  Au  11.08938870203441      7.06152252841631     10.39363558823587
  Au  8.30921602421690      6.80717960749356     10.94061999999042
  Au  9.34006830451654      9.37473537986872     10.21470112928190
  Au  11.31214814588697      8.90933929179185      8.18349998484057
  Au  11.47227978271065      6.08932632927117      7.73214659726610
  Au  7.99426147719568      3.16093112895125      8.09423526732164
  Au  8.72546922164108      9.85275098968366      7.43410010785597
  Au  9.00820803663451      5.20378673243160      6.58448264573062
  Au  9.79524804087385      7.72692899332108      5.95101400935882
  Au  9.74009047391030      4.71212215777831      9.57863858444830
  Au  6.87296793304734      8.37769059068831      8.93531736133872
  Au  7.01032252277265      5.67290330776784      8.64439336339472
  Fe  9.17370196455915      7.28775746253634      8.43058632093632
