13
Coordinates from ORCA-job pbe
  Au  11.07220459992271      7.11707344574672     10.35297831565528
  Au  8.27265551015957      6.82432444693447     10.94388531113012
  Au  9.28289771958854      9.35386576203500     10.24441841562963
  Au  11.38596742249919      8.90576490667799      8.12820282417268
  Au  11.51684303174201      6.13916752734426      7.68468654820698
  Au  7.95129815198103      3.21878365552943      8.08938276806184
  Au  8.79591354366647      9.77228055091219      7.52603475099129
  Au  9.09992604480173      5.18043829166641      6.57868790357485
  Au  9.80957881016672      7.70387128542870      5.93951563672306
  Au  9.71322298695896      4.79368835993136      9.48634235916607
  Au  6.84517103044533      8.34179269401198      8.92683742448607
  Au  6.91492770309574      5.65002248647308      8.76778775766831
  Fe  9.18276407497194      7.23590108730830      8.44861094453369
