13
File written by ORCA
Au   -2.659956   12.621637   -6.033175
Au   -4.907842   11.453235   -7.086723
Au   -8.202689    8.281914   -4.794638
Au   -3.491258   10.303133   -4.642879
Au   -7.076727    9.887101   -6.862503
Au   -5.453974    8.502802   -4.686693
Au   -7.571528   13.332620   -4.877951
Au   -8.835717   10.975947   -4.841351
Au   -7.234623    9.930242   -2.680728
Au   -4.936577   13.506082   -4.703640
Au   -5.084792   11.499388   -2.329987
Au   -2.751709   12.640272   -3.229181
Cr   -6.075539   11.073907   -4.745297
