15
Coordinates from ORCA-job pbe
  Au  8.96377481130270      7.89197302844180      5.12571776582412
  Au  8.00376173556094      9.80036934791445      8.81411152326026
  Au  10.48066914468798      9.27898159779665      7.06625705931565
  Au  7.96389460238698      7.46433938419278     10.49959396505005
  Au  10.29244889686627      8.83032260585131      9.78352105809098
  Au  10.96605579281962      6.58037247385703      6.59894948418142
  Au  8.12413955549939     10.41806932091854      6.11467620633145
  Au  6.36484013308522      8.16877834811662      6.06702442851499
  Au  9.32176735287789      4.61740342356048      7.69281974463013
  Au  7.48017387474273      5.67079028080478      5.93926507055744
  Au  4.92555481044991      5.97572415206676      7.05976619327810
  Au  5.73370427850143      7.89348033039933      8.89082774818962
  Au  6.97338873363571      5.39191817757144      8.92088635637683
  Au  5.63858118593752     10.37387853774912      7.61827090253886
  Mn  8.68171935164533      7.29562798075860      7.85641393385973
