13
File written by ORCA
Au  -10.971322    2.230428    5.397239
Au  -10.877815    4.730124    8.914806
Au   -9.075714    6.353570    7.580005
Au  -12.556034    6.482918    7.580116
Au  -12.530026    6.971791    4.725285
Au  -12.652269    3.628106    7.096996
Au  -12.638768    4.115935    4.243114
Au  -10.841545    5.743300    2.908088
Au  -10.748935    8.235481    6.427598
Au   -9.168254    3.986610    4.243493
Au   -9.065292    6.842906    4.725509
Au   -9.191981    3.497904    7.097871
Cr  -10.859244    5.237821    5.912626
