13
File written by ORCA
Au   -3.525863  -11.084227   -4.379852
Au   -5.208362  -11.101653   -8.354697
Au   -3.203825   -9.340529   -9.093014
Au   -3.168122  -12.823070   -9.092429
Au   -0.481051  -12.787415   -8.011639
Au   -4.255228  -12.823888   -6.407133
Au   -1.569628  -12.800708   -5.325554
Au    0.437112  -11.044584   -6.066933
Au   -1.250992  -11.062683  -10.036375
Au   -1.605825   -9.327975   -5.326104
Au   -0.516939   -9.320470   -8.012298
Au   -4.292403   -9.361351   -6.406873
Cr   -2.386043  -11.072729   -7.212390
