17
File written by ORCA
Au    1.582006   -4.182461   15.875076
Au    1.294892   -3.903543   13.131740
Au    3.293945   -5.643326   14.256531
Au    3.328433   -5.240785   11.564247
Au    2.095386   -2.833481   10.639231
Au    3.390422   -4.541494    8.906562
Au    5.592455   -4.331709   13.119890
Au    5.269585   -4.548848   15.864752
Au    3.838122   -0.176235   14.015786
Au    5.685604   -1.785673   15.410765
Au    1.504146   -1.138720   12.700187
Au    3.600773   -2.638199   17.062692
Au    1.717469   -1.390881   15.421604
Au    3.782160   -0.662942   11.163788
Au    5.010048   -3.123533   10.628509
Au    5.929514   -1.579008   12.687720
Cr    3.569468   -2.888401   14.165498
