17
File written by ORCA
Au   -0.865816   -2.095717   16.336220
Au   -0.293466   -1.725619   13.648923
Au    1.013079   -3.778918   15.186814
Au    1.450979   -3.730128   12.500277
Au   -0.554940   -2.439541   10.924888
Au    1.595624   -3.705962    9.755347
Au    0.102576   -6.026245   13.632484
Au   -0.526898   -5.785908   16.321658
Au   -4.121829   -4.244632   13.273964
Au   -3.021302   -6.152570   15.034096
Au   -2.795547   -1.886248   12.388740
Au   -2.705966   -4.127765   16.932230
Au   -3.386428   -2.181609   15.049346
Au   -2.788034   -4.112392   10.709318
Au   -0.285840   -5.356199   10.911080
Au   -2.388228   -6.314755   12.371373
Cr   -1.583698   -4.015780   14.251691
