11
File written by ORCA
Au   -3.406023   -0.110437  -10.674317
Au   -4.386200    0.898059  -13.001816
Au   -4.394723   -2.483498   -9.851589
Au   -5.763999   -0.062348   -9.042238
Au   -7.086359    0.989578  -13.001869
Au   -5.946291   -4.725460   -9.785614
Au   -5.893534   -3.430914  -12.257007
Au   -5.813103   -1.447148  -14.015900
Au   -8.126648    0.073154  -10.662291
Au   -7.321128   -2.372057   -9.851043
Fe   -5.801045   -0.868116  -11.526949
