17
File written by ORCA
Au    9.860572   11.617108   -1.167832
Au    8.757869   11.795635    1.466661
Au   11.481208   11.276557    0.909121
Au    8.106890   11.305515   -3.256296
Au    7.044158   11.181386   -0.728941
Au   11.054199    8.958994   -0.544465
Au    9.174404    6.873000   -0.872828
Au    6.757485    8.164264    3.135929
Au    6.274151   10.457676    1.708174
Au    8.252449    6.363706    1.732160
Au    6.949373    8.300710    0.108088
Au   10.592116   11.037401    3.518277
Au    7.920885   10.609610    3.924659
Au    9.538621    8.462325    3.060905
Au   10.959769    6.815067    1.296973
Au   12.176428    9.032387    2.320890
Mn    8.663751    9.258938   -1.701183
