15
Coordinates from ORCA-job pbe
  Au  10.20768483586448     10.71242468545389      6.33437102873101
  Au  11.31112041211983      8.94983004684443      8.28729764834104
  Au  10.41956968153351      6.34215958650736      8.03722116781630
  Au  6.67505960838008      9.04450699199890      8.93429753835227
  Au  9.09336084627531     10.59329206963035      8.98082064197145
  Au  9.10021964174403      7.89894147452832      9.90793699410413
  Au  6.28410881155567      8.15686917863942      6.25131922070805
  Au  7.29778516842616      6.38197369342232      8.26968195515706
  Au  8.69281811573098      4.38088134615959      7.05592638464416
  Au  8.31844262476224      6.53231943742303      5.31918132597880
  Au  10.99633896079867      8.12855649606971      5.54992809400475
  Au  7.36182055423963     10.75121130617621      6.72797135761668
  Au  8.49598087997789      9.20476814220313      4.62392034037213
  Au  10.87058753795036      5.40931043663660      5.44463679720592
  Cr  8.82306720064088      8.45994660830631      7.24111504499603
