13
File written by ORCA
Au    0.975958  -13.325527   -5.907996
Au   -0.476746   -8.904848   -8.029941
Au   -1.360774   -9.969562   -5.667116
Au    0.967159  -11.232766   -7.514041
Au    3.311968   -9.964853   -5.667197
Au    2.424881   -8.914155   -8.033091
Au    0.975954   -8.347366   -5.690607
Au   -1.072646  -11.046230   -3.202575
Au    0.972392  -11.063585   -1.232446
Au    0.966157   -8.990983   -3.054927
Au    3.018794  -11.035820   -3.201163
Au    0.977020  -13.051438   -3.212813
Fe    0.975487  -10.947548   -4.881893
