15
Coordinates from ORCA-job pbe
  Au  9.11154571915255      7.61693482040413     10.02294903060147
  Au  7.04606140553495      5.53750878405028      9.75708719504286
  Au  5.70575518492062      9.31082044040344      7.43028915192920
  Au  3.75600241740288      7.84135721494583      6.11450217855051
  Au  5.68592878950968      9.48671981224830      4.66272271807124
  Au  8.18019561472208      9.87775861239467      8.53317346482159
  Au  4.98081821693938      6.43192766509319      8.14237693236630
  Au  6.32638572757082      8.28893922293676      9.92998917536022
  Au  7.11167837296458      4.79478580894802      7.00540643817787
  Au  8.22100398915613      9.19338445181524      5.70257462097019
  Au  10.21077868732477      8.23778433278601      7.37503479414240
  Au  8.96723865419801      6.38254577835029      5.61027191509140
  Au  9.57668521626253      5.51912031772061      8.28118179659980
  Au  6.25192584659125      6.87149703357297      5.39479170481432
  Fe  7.63234146774975      7.34216084433024      7.75880974346057
