15
File written by ORCA
Au    6.215879    8.372758    4.673530
Au    7.744942    6.076377    4.597108
Au    9.285214    8.364519    4.734207
Au    5.311581    6.182572    6.067092
Au    7.706151    6.481865    7.525479
Au   10.139904    6.160845    6.130219
Au    5.359138   10.404060    6.300961
Au    5.388032    8.067171    8.042882
Au    6.279428   10.567276    8.930381
Au    7.672936    8.215301    9.693671
Au    7.758500   10.609384    4.643667
Au   10.093073   10.405370    6.379288
Au    9.119968   10.547778    8.986489
Au   10.009747    8.048651    8.104347
Mn    7.715425    9.214267    6.995173
