16
Coordinates from ORCA-job pbe
  Au  8.33659380770390      7.72552095982022     11.69637762976343
  Au  6.47163162483800      6.02643190875838     10.65913075388423
  Au  6.18596742501380      8.82483219602318     10.25353696532562
  Au  8.74982414404328      9.97145934730151     10.07460716880225
  Au  8.38963978377121      5.09285918788158      8.93363118145226
  Au  9.77512085075493      7.46149326504228      9.38348365891243
  Au  6.82125324318982     10.84829966678252      8.32145132734146
  Au  9.77370575075530      6.36474242879664      6.87977641655389
  Au  8.89498660914580      9.25336922015900      7.36749708496718
  Au  8.40192815301085      7.84236765606050      5.03329920235676
  Au  4.49779627884419      9.41658809454278      8.10162903529670
  Au  6.25152118076268      9.22111046800844      5.98111152335494
  Au  5.73903870230321      4.95199209825695      8.12501012293856
  Au  4.65779183085592      7.00273821573929      6.59070399387573
  Au  4.23549504165262      7.01232460456732      9.40621363895485
  Mn  7.21827826335425      7.10689699225904      7.47408380621939
