16
Coordinates from ORCA-job pbe
  Au  8.22832589677971      7.78124674802243     11.70665615664715
  Au  6.57486106526142      5.97007020556541     10.49943695685329
  Au  6.05312380751744      8.86672695271090     10.34980293766683
  Au  8.81862749321078      9.89366517130245      9.95638559256303
  Au  8.50871195834269      5.03769697265339      8.72521671263577
  Au  9.77136604666704      7.36505972762391      9.48024461401593
  Au  6.88231940356127     10.81126892509025      8.30801067768392
  Au  9.91702711226534      6.59797081893591      6.86580032453687
  Au  8.91662310083875      9.18803031613901      7.18679978330212
  Au  7.60246405075058      7.11618933581511      5.54546452538994
  Au  4.50258567077589      9.43170325683920      8.04149738788255
  Au  6.31841059410654      9.52014539878397      5.93303074027620
  Au  5.91212654417254      4.98525146639803      7.86596573121575
  Au  4.94882625734576      7.11517441420841      6.40723040903633
  Au  4.33786796950072      6.94713179036540      9.16745557830434
  Mn  7.10730571890291      7.49569480954538      8.24254538198919
