13
File written by ORCA
Au    9.955035    2.672840    4.975826
Au   13.062014    3.618539    5.340029
Au   12.707610   -1.488537    5.729574
Au   13.460608    1.003611    4.953947
Au   10.365212    0.059449    5.361399
Au   13.096432    0.072176    8.059377
Au   10.758181   -1.486118    7.702660
Au   10.720840    5.164362    5.733486
Au   10.368410    3.614918    8.078307
Au   12.699067    5.174631    7.677270
Au    9.982094    0.998860    8.468410
Au   13.472770    2.689840    8.452594
Cr   11.720821    1.842121    6.711753
