13
Coordinates from ORCA-job pbe
  Au  10.98516507671510     11.82110856607054      7.78441139582625
  Au  8.33706482574682      8.82215829251741     10.06097913878089
  Au  10.11082720373665     10.87179250096312     10.41039190846720
  Au  6.99992084051809      6.78882307481343      8.83233390247465
  Au  10.68482194653503      7.25368564392686      6.54192634413049
  Au  10.88850647062771      9.05252418802398      8.52067352064996
  Au  8.28090301329886      5.89225151516493      6.50009972360482
  Au  6.14380749949994      7.65465005265732      6.16400590168658
  Au  6.15539570937534      9.59937155664948      8.12563987664976
  Au  8.36549268992615     11.11766304006128      8.14906522633543
  Au  10.02708555094467     10.12292372699828      5.86998743842503
  Au  8.48093822102391      8.20223182694782      4.70689983665978
  Mn  8.46464611205140      8.48766148520521      7.36992419630878
