13
File written by ORCA
Au    2.729516   -9.978278   -8.158312
Au   -0.207022  -10.336856   -8.148482
Au    3.482378  -10.090282   -5.609975
Au    3.165507  -12.688507   -8.443564
Au    1.408505  -11.428547  -10.202567
Au    3.798502  -12.972123   -5.801942
Au    0.111029  -12.105175   -3.534384
Au   -0.546262  -13.481187   -5.806253
Au    1.778249  -14.519341   -6.869104
Au   -0.901187  -10.604868   -5.595730
Au   -0.003119  -13.073190   -8.451025
Au    2.828744  -11.766332   -3.543703
Cr    1.448190  -11.707996   -6.267020
