13
Coordinates from ORCA-job pbe
  Au  8.32510277762385      7.33593831312763     11.04754549085341
  Au  10.23494929135494      8.98342773412974     12.17563576955303
  Au  9.47688975113877      4.86982769780186      9.99255721594116
  Au  7.05726772685411      5.82381545765392      9.02723830765713
  Au  9.54079105200055      9.73363107588372      9.64688533387355
  Au  6.97828174670438      8.59226935052269      8.78595305567833
  Au  9.05870362140561      4.84691238084683      7.15013941816017
  Au  11.53456570160969      8.50022893629808      8.01577696829672
  Au  9.10358694631343      9.33651689474808      6.97037703052286
  Au  7.55827137970418      7.05412475773863      6.44180489546885
  Au  11.52891012817552      5.72575640195752      8.15419522778749
  Au  11.30114310999278      7.11251328577612     10.50412723122339
  Fe  9.29881293712214      7.17781291351510      8.55635976498384
