15
Coordinates from ORCA-job pbe
  Au  6.53191754570886      8.51335685906601     10.38920032031601
  Au  5.47141113501171      6.13711744173649      9.40924726510990
  Au  8.31295653213396      6.52759228224163      9.57697702185513
  Au  8.82009474477482      9.27733165464970      9.00307272193144
  Au  7.07113908498157      4.67971933536179      7.72860446046715
  Au  9.56247817617800      5.85184992714226      7.16975680217820
  Au  10.05101993415555      8.45386509958122      6.63144436958362
  Au  8.18285743250036     10.54997189033127      6.49146537115411
  Au  7.96684349020569      8.43044993697952      4.65609546884531
  Au  5.65736860794016      9.24418594253647      6.00639229577592
  Au  7.47593875178694      5.82990330495431      5.19849420804270
  Au  5.13742426077903      6.49608026828493      6.57682442094917
  Au  4.41046728619536      8.49321660104263      8.37762313556451
  Au  6.29794526151333     10.53546991993383      8.48847516092499
  Mn  7.42059671613432      7.69675592615757      7.32946856730147
