17
File written by ORCA
Au   -3.070125    0.777747  -16.170674
Au   -0.810518    0.860268  -14.550091
Au   -5.426053    0.457411  -14.728823
Au   -3.402669    2.095444  -10.718706
Au   -3.257948    1.742724  -13.491029
Au   -5.544587    0.718535  -11.974908
Au   -1.475914   -1.499246  -15.853533
Au   -4.265283   -1.741911  -15.967536
Au   -0.956861    1.131267  -11.797385
Au   -2.790085   -3.330220  -14.228380
Au   -0.977649   -1.520814  -13.057651
Au   -1.030020   -1.272922  -10.284024
Au   -2.914493   -3.040268  -11.475750
Au   -3.262713   -0.137547   -8.886352
Au   -5.160107   -1.640961  -10.438530
Au   -4.965296   -1.869226  -13.212094
Cr   -3.144321   -0.382968  -11.591520
