17
Coordinates from ORCA-job pbe
  Au  9.02308072781565      6.21368763769564      7.07926646531843
  Au  8.36229627688702      8.36616606463581      8.97697112473739
  Au  6.91863264328834      5.97478496950381      8.98067430578591
  Au  6.54271455954410      5.03488368918578      6.33045564521457
  Au  9.29375691521705      9.04149257401894      6.47063951352844
  Au  10.53910148328316      7.04201472861330      4.93047189193858
  Au  9.15428138989717      9.17343319521513      3.64643768860777
  Au  7.79500612367527      6.83149840456937      4.42911182473509
  Au  4.36754499276204      6.48136652056126      7.52255916753248
  Au  4.47156201375872      9.18539873134795      6.57987618487757
  Au  5.54224375515694      8.48313508961468      9.13645652027278
  Au  5.03270436801167      6.90233022679945      4.83892370700984
  Au  7.02431999811735     10.34757135952692      7.52451659385819
  Au  8.20083012226856     11.28705800726594      5.16211833018164
  Au  5.41052049828259     11.60525471208028      5.60461237172475
  Au  6.39949048891141      9.25663948739813      4.39388601857919
  Fe  6.73671684312286      7.67656277196750      6.85428968609728
