11
Coordinates from ORCA-job pbe
  Au  6.11025842116966      7.75356901612738      8.46492848562799
  Au  7.02197501504918      5.34195267438188      9.45924784389318
  Au  8.85091332482048      4.59793031812977      5.77821303963780
  Au  7.02101543714785      6.47782984532943      6.18806635607814
  Au  8.84610064937415      3.61036207150043      8.60735104422931
  Au  13.40412266773683      6.22263884823375      7.95041713047091
  Au  11.06901826317541      7.47748717341580      8.36056460629700
  Au  11.24883394834200      4.80864353783527      7.44026411620856
  Au  10.39101214072446      2.42791512151285      6.60943079088944
  Au  8.69428601957820      8.55507569177992      8.72701887310236
  Fe  8.87005615288154      6.16136724175290      7.91042624356481
