11
Coordinates from ORCA-job pbe
  Au  7.68994725920988      6.57831891992874      6.46732794431381
  Au  8.69233929079564      8.97340814506251      7.00154605127409
  Au  5.87951476238190      4.52852010439223      6.26671322334897
  Au  6.38086655511401      5.47987280573250      8.77945556599656
  Au  6.74991034516783      7.19233097888328     10.82472785215292
  Au  4.62284072090411      9.60472984485313      7.53364066817525
  Au  4.78481930000988      7.04907187341689      6.62498479737197
  Au  7.08752827290079     10.78874466016068      8.28692687870867
  Au  5.69838949713434      9.72444214789907     10.35345544020439
  Au  4.24447488727190      7.43217252729958      9.36766957646877
  Fe  6.62339845910966      8.13269976237123      8.35044469198445
