15
File written by ORCA
Au   11.137233    2.115288    0.380842
Au   13.044686    4.153172    0.394805
Au   15.360854    2.597539    0.287508
Au   11.376005   -0.149676    1.985909
Au   13.310219    2.216952    2.296986
Au   13.592463   -0.052200    3.716794
Au   15.710316    0.356172    1.908429
Au   15.471626    0.393471   -1.405990
Au   16.035135   -1.820300    0.196874
Au   13.236954    2.035698   -1.566337
Au   13.696090   -1.792478   -1.335465
Au   11.453212   -0.084005   -1.296648
Au   11.508204   -2.371539    0.303861
Au   13.805037   -2.071177    1.833992
Cr   13.502774    0.215945    0.440017
