13
File written by ORCA
Au    8.795258    2.322859   14.059814
Au    7.362042    4.409164   12.693954
Au    6.321110    3.348389   15.081345
Au    6.922083    0.391934   15.064918
Au    8.288442   -0.146931   12.675235
Au    7.670292    2.132910    8.697077
Au    4.403668    1.426296   14.424984
Au    6.624171    0.309487   10.437879
Au    5.414040   -0.528924   12.698966
Au    8.704466    2.314335   11.233564
Au    4.565714    3.642192   12.728668
Au    5.992814    3.373464   10.455573
Fe    6.502324    1.863021   12.740070
