15
File written by ORCA
Au    9.215334    7.799592    4.811390
Au   13.227937    6.364637    4.723250
Au   11.614449    8.613545    6.065256
Au   12.949960    4.218279    6.624659
Au   13.354859    6.888561    7.336338
Au    9.489971    7.693004    7.606574
Au   11.611364    8.127817    3.322936
Au   10.059680    5.736050    3.154279
Au    8.986349    4.967301    7.871893
Au    8.333535    5.179866    5.206429
Au    9.331755    3.072335    3.645514
Au   11.986865    3.755388    4.054791
Au   10.379000    3.202267    6.269370
Au   12.667835    5.684626    2.158704
Mn   10.866671    5.923894    6.094639
