11
File written by ORCA
Au   14.652494    7.058447    0.102842
Au   13.604660    4.632679   -1.037944
Au   14.217895    6.856737   -2.511995
Au   11.162977    4.791346   -2.631968
Au   13.184289    3.196077    1.156080
Au   14.447348    7.288844    2.717047
Au   12.092508    8.328860    1.200902
Au   11.693732    6.957063   -1.032815
Au   10.733528    4.235986    2.585632
Au   10.680541    4.458957   -0.037362
Cr   12.626700    5.759214    1.432369
