11
File written by ORCA
Au   10.113481  -12.711037    0.821503
Au    7.571981  -12.251113   -0.448514
Au    9.942982  -12.382686   -1.810996
Au    7.260635   -9.866494   -2.105184
Au    5.977073  -12.118530    1.671149
Au   10.170371  -12.409419    3.435890
Au   10.733113   -9.911944    1.895910
Au    9.412973   -9.871380   -0.403205
Au    6.380860   -9.470776    3.070296
Au    6.708871   -9.420119    0.458312
Cr    8.337473  -10.999662    2.036607
