11
File written by ORCA
Au    3.637585    5.319975   11.156653
Au    0.303344    2.285920   14.468485
Au    1.840637    1.189905   12.258409
Au    2.047369    2.969068   10.303771
Au    0.868072    5.579978   11.134285
Au   -0.212990    4.730187   13.459100
Au    2.089355    4.303573   15.267040
Au    1.702300   -0.030306   14.753524
Au    4.481357    4.301535   13.518670
Au    3.503565    1.993669   14.504608
Fe    2.079109    3.787531   12.720835
