15
Coordinates from ORCA-job pbe
  Au  9.53071471966101      5.69488994376073      5.28115206108369
  Au  10.51816446970676      5.41629869817462      9.28178540476930
  Au  8.75407697143691      4.24998934687142      7.50310047781326
  Au  8.01376284050687      5.80643005965163     10.19536143635408
  Au  9.97751326199968      8.01413683454648      9.91527558101497
  Au  8.85063801070774      8.33794345572556      5.32324116527214
  Au  6.24710806617707      5.18522223409001      8.17830528331278
  Au  4.79002483158126      7.24643009427429      6.94154841084362
  Au  5.59554010364221      7.01106487470633     10.21611334170189
  Au  4.83174325878740      9.33597273103365      8.82605377521002
  Au  6.90319849191923      6.13435123430680      5.68038127391971
  Au  6.73748781047141      9.18114074452870      6.82061859781007
  Au  7.44058134019440      8.97822753792423      9.69030290210881
  Au  9.25974916433840      9.68579608455052      7.76477258145039
  Mn  8.58378961886925      6.97419428585472      7.73738999733486
