11
File written by ORCA
Au    2.516533   -9.697183    5.273722
Au    0.028195   -8.058062    6.855011
Au    0.317740  -11.105921    9.476989
Au    0.003305  -11.188535    6.858098
Au   -0.009464   -9.624620    4.561915
Au    5.117188   -9.736670    4.985009
Au    0.350016   -8.135109    9.472863
Au    1.186294   -9.625086   11.628389
Au    3.352368   -9.662120    9.979029
Au    4.426228   -9.702360    7.572134
Mn    1.841232   -9.638369    7.886152
