15
Coordinates from ORCA-job pbe
  Au  10.35142179180781      6.12032789922393      6.48267006294918
  Au  6.29922931199465      6.10964481136634      6.13540174745505
  Au  10.55574052206682      5.00457821631210      9.04742870831899
  Au  8.13886640787083      4.78000074083113      7.69721160384254
  Au  6.10395587040724      6.18044499079307      8.89051912346496
  Au  8.51282221477982      6.52254161737968     10.16092582227230
  Au  10.71505874291077      7.79646080687069      8.84707753378244
  Au  6.84983965314011      8.68726340414630      9.78496235156294
  Au  9.37280604633528     10.02789484446305      8.31420773785896
  Au  6.69115163187155     10.93043928290126      8.14566483992338
  Au  7.98164364128367      9.95374666557491      5.93551364535119
  Au  6.14696134313697      8.42355034599925      4.59585928674404
  Au  8.83742030484992      7.56870252994883      4.84814340036007
  Au  5.53688377270514      8.55932917932524      7.29574101868778
  Mn  8.27371325483882      7.62109631486507      7.54708531742558
