15
File written by ORCA
Au   -1.482796    4.198260  -13.170017
Au    0.461869    2.899460  -11.690917
Au   -1.391396    4.483599  -10.316942
Au    0.530018    7.794030  -13.114417
Au   -0.430732    8.607226  -10.621098
Au   -1.945857    6.844216   -9.072718
Au   -1.805753    6.680934  -12.063751
Au    1.140277    4.976033  -13.606847
Au    1.206248    4.078061   -9.200883
Au    0.751015    6.910997   -8.593086
Au    3.095780    6.657360  -12.521343
Au    2.917451    4.075546  -11.529655
Au    3.215354    6.030264   -9.584862
Au    2.280654    8.447024  -10.536459
Mn    0.757551    5.982203  -11.121737
