15
File written by ORCA
Au   -3.782816   -3.043928   13.026827
Au   -1.412702   -2.498308   11.707282
Au   -3.570255   -3.438994   10.193357
Au   -3.057560   -7.098479   13.163536
Au   -4.036276   -7.638275   10.603906
Au   -4.768114   -5.531425    8.922571
Au   -4.813117   -5.322353   11.913697
Au   -1.599786   -4.617142   13.686859
Au   -0.904915   -3.937696    9.296103
Au   -2.212658   -6.487424    8.670900
Au   -0.223608   -6.878300   12.779957
Au    0.528457   -4.413562   11.759921
Au    0.320077   -6.422999    9.859756
Au   -1.423393   -8.371228   10.745560
Mn   -2.097719   -5.526963   11.185076
