17
File written by ORCA
Au   10.735488  -11.416881    1.598659
Au    8.395855   -7.020320    4.361973
Au    9.644168   -9.699939    3.678212
Au   10.087537   -5.158504    3.088837
Au   11.152233   -7.431764    4.313751
Au   12.301006   -9.529478    2.973802
Au   11.828626   -9.227724    0.227305
Au   10.398651   -7.020810   -0.589508
Au   11.972756   -6.827263    1.697301
Au    6.475482   -9.510358    0.785204
Au    9.132778   -9.690087    0.087772
Au    8.029911  -11.408727    2.156658
Au    7.636890   -7.414125   -0.545825
Au    6.953353   -9.212643    3.530689
Au    6.828913   -6.806978    2.072322
Au    8.720055   -5.151330    0.683147
Fe    9.398337   -7.501307    1.886149
