13
Coordinates from ORCA-job pbe
  Au  8.71350266471970      9.99206862079607      6.93170619139706
  Au  6.15523255121481     10.18131837028231      8.00928081705153
  Au  6.89729253631645     10.16763133868049      2.77932324747769
  Au  9.58873497151875      7.43278963720888      6.51798516286045
  Au  8.61546561774376      8.70251417619590      4.31898029795512
  Au  6.50015665886034     10.76530028636110      5.40751305960048
  Au  7.65594212578503      6.14981826838947      8.02855723642306
  Au  5.32160142381052      7.51393695014030      8.50775023534532
  Au  4.22837657392964      8.74007740282370      6.33764439076502
  Au  4.23361149375599     10.04472882934367      3.95224681902810
  Au  5.84334949043629      7.76907430077410      4.03005782875826
  Au  7.40071896183520      5.90478459483416      5.19502233490578
  Fe  6.89039392007336      8.13512541416977      6.43151902843199
