13
File written by ORCA
Au    7.092563   -5.110005   -9.669323
Au    7.091047   -5.107568   -7.020921
Au    7.098175   -5.959099   -4.444512
Au    5.440374   -7.484210  -10.658253
Au    7.094133   -5.965836  -12.243173
Au    8.755604   -7.473749  -10.655217
Au    7.103459   -9.575413  -10.030230
Au    7.100258   -9.576844   -6.655883
Au    4.892778   -8.847733   -8.342252
Au    8.753234   -7.476518   -6.028601
Au    9.307920   -8.841363   -8.342019
Au    5.443666   -7.478740   -6.030497
Mn    7.098161   -7.366261   -8.343244
