15
File written by ORCA
Au  -10.484089    3.909469   -4.551502
Au  -11.782397    5.397166   -6.477442
Au  -11.727810    4.441586   -9.065638
Au  -10.701117    2.716309   -7.000544
Au  -10.400417    2.054028   -9.662745
Au   -8.077962    1.809089   -8.216239
Au   -7.771403    6.468100   -9.669592
Au  -10.088527    6.712580   -8.214340
Au   -6.435824    4.085041   -9.070968
Au   -9.535611    6.501993   -5.321908
Au   -7.663962    4.610503   -4.560089
Au   -7.458965    5.807898   -7.007091
Au   -6.375289    3.119348   -6.486556
Au   -8.618803    2.016835   -5.321875
Cr   -9.081813    4.261059   -8.662433
