13
File written by ORCA
Au   -2.443981   11.539147    5.116128
Au   -4.362921   10.147263    1.148411
Au   -2.869564   12.585881    0.523002
Au   -2.012588   10.572667    2.720825
Au   -1.910896   10.055772    0.013158
Au   -6.946806   10.434146    0.408567
Au   -6.354283   10.830635    3.071096
Au   -5.421240   11.690176    5.364613
Au   -3.713297   12.980996    7.040583
Au   -5.560641   12.792027    0.706599
Au   -3.962113   14.639317    2.070888
Au   -3.766541   14.406439    4.690144
Mn   -4.079216   12.249529    3.143589
