13
File written by ORCA
Au   10.796416   -3.846117   -5.826191
Au    9.640419   -5.278795   -1.586669
Au   12.231745   -3.943828   -1.320210
Au   10.092410   -3.122611   -3.409878
Au    9.839157   -2.735782   -0.690464
Au    9.800517   -7.800804   -0.627516
Au    9.990466   -7.484557   -3.359046
Au   10.700054   -6.835851   -5.797338
Au   11.953452   -5.398636   -7.735267
Au   12.217602   -6.648307   -1.259444
Au   14.044318   -5.338112   -2.925442
Au   13.583697   -5.359495   -5.521661
Mn   11.562944   -5.351360   -3.772847
