15
Coordinates from ORCA-job pbe
  Au  10.20071514522825      8.13848907171989      9.19034048949692
  Au  8.26174342034229      6.08541453724989      9.53757608405621
  Au  5.29554181551119      8.89020309618375      8.58260980052605
  Au  5.59493057784095      6.13389529935981      9.40837596287013
  Au  7.59110864046565      8.72297762614147     10.11448299996012
  Au  9.82673551697334     10.27443834206711      7.54715673214711
  Au  7.18197680801071     10.75399071912668      8.18257400492695
  Au  6.48374458003283      5.94549248753302      6.83293822852034
  Au  10.79654370938512      5.43092633537047      8.83317010187188
  Au  3.93664361886772      6.95761931767921      7.16313284607232
  Au  9.17942922377325      5.71029383087053      6.70273719705520
  Au  7.89048744333546      7.35352554960294      4.90078672739247
  Au  5.62307425840484      8.69472629796838      5.78602243995182
  Au  7.92048118684707     10.13678240474129      5.51069191030484
  Mn  8.01128502497996      8.19012952438441      7.50188836484590
