13
Coordinates from ORCA-job pbe
  Au  8.48438354926437      7.96988431997135      4.26831627638674
  Au  6.26056884923697      6.52462170776510      3.48699817060811
  Au  9.31777748615108      9.29864654990525      6.54439817966379
  Au  8.56253467864916     11.26114241070322      8.30491195469029
  Au  5.85987521217004      9.16427808682396      4.29976147459808
  Au  4.55621562591642      6.81228589261461      5.74718944746094
  Au  6.78710521581941     10.66842902781276      6.27163133558429
  Au  6.93197315665887      5.29946257328326      5.97051037692001
  Au  9.34746065627221      6.57126537478098      6.49493996311698
  Au  5.01156958875292      7.59802235120523      8.27842824529898
  Au  7.52291240349165      6.27523967506354      8.51826961125461
  Au  7.30573572605243      8.96848684224939      8.94696478750538
  Fe  6.89206337156326      7.97332887782212      6.43558037691157
