11
Coordinates from ORCA-job pbe
  Au  8.97090206972728      3.89894303330208      8.22217460657576
  Au  6.44005718937069      4.10819044241247      8.98824375399958
  Au  7.26660704812499      4.89423127710348      5.86340509956101
  Au  6.15887412609555      8.44949197562813      8.01880002788485
  Au  5.13384284992528      5.97587650310483      7.35289380741249
  Au  11.57006363506152      4.64339792497654      7.91118711049551
  Au  9.78673933263247      5.88589740865364      6.20705893958824
  Au  8.11882982536148      8.06765716697038      9.97409455996211
  Au  10.17754577900429      6.71705778088005      8.99831809464794
  Au  8.66699680971504      8.30420332759866      6.73444324492754
  Cr  7.69237548498130      6.26221159936963      8.07070188494516
