11
Coordinates from ORCA-job pbe
  Au  6.04451228885349      8.59165330102519      6.23470495433173
  Au  7.43548875364149     10.67123273533222      7.75158791592623
  Au  10.00841571605467     10.98090591384343      7.11665581835604
  Au  4.91907591297525      9.89200000525563      8.49553011404113
  Au  6.90321405919973      9.93421577281621     10.52711458118015
  Au  6.85455281140386      7.17172040676676     11.01269015555296
  Au  4.56382359787460      7.22971354551856      9.39285722728304
  Au  8.55497286980692      6.17914289750618      8.92945727568881
  Au  6.13760368793418      6.04218306666584      7.39664724650997
  Au  9.42359161821061      8.53737397300777      7.99407536099675
  Fe  6.92639690404513      8.18438270226213      8.62756915013309
