11
File written by ORCA
Au   -4.280801    9.876443    1.794227
Au   -3.037756    8.951640   -0.694319
Au   -4.422338    7.214853    0.822938
Au   -6.225225    8.925903   -0.164161
Au   -2.203160   11.232155   -1.727035
Au   -6.312574   13.357202   -0.174878
Au   -4.594736   15.149384    0.822537
Au   -3.150859   13.472442   -0.707516
Au   -7.412261   11.117492   -1.027489
Au   -4.332562   12.496961    1.791186
Mn   -4.673554   11.171919   -0.540285
