17
File written by ORCA
Au    2.626867    1.261244   17.777218
Au    0.851533    2.833161   16.199990
Au    3.634966    3.444295   16.255196
Au    2.015096    4.353956   14.232185
Au    3.448152    4.419827   11.858268
Au    4.862785    2.955326   13.841303
Au    4.859468    2.160517   11.122797
Au    0.699764    3.813124   11.849261
Au    1.427764   -0.580381   12.903679
Au    4.608446    0.127016   12.949777
Au    2.980467    0.082989   10.662167
Au   -0.025951    1.868507   13.779227
Au    0.389762    1.176498   11.064904
Au    4.258877    0.830996   15.585853
Au    1.385005    0.198841   15.543623
Au    3.301939   -1.625943   14.644503
Cr    2.538164    1.952887   12.708353
