17
File written by ORCA
Au    2.933697   -0.155445   17.773292
Au    2.148407    2.080555   16.194049
Au    4.876420    1.256407   16.246523
Au    3.903172    2.837824   14.222680
Au    5.182925    2.192979   11.847838
Au    5.706310    0.227262   13.832884
Au    5.311846   -0.468763   11.115909
Au    2.487732    3.003964   11.841535
Au    0.981665   -1.185030   12.903965
Au    4.103405   -2.118929   12.946924
Au    2.657506   -1.366459   10.660316
Au    0.908404    1.663085   13.775632
Au    0.929888    0.852407   11.062409
Au    4.145390   -1.330176   15.581841
Au    1.328192   -0.480245   15.542435
Au    2.110221   -3.009526   14.645739
Cr    3.186414    0.484505   12.703161
