11
Coordinates from ORCA-job pbe
  Au  10.78850025880024      4.50620066448235      5.44882676119001
  Au  7.19221946172997      7.39936532319060      6.25477868102667
  Au  8.13996876341336      5.11914086161313      5.06632581317632
  Au  8.75374969859966      3.96280364050360      7.52549988539680
  Au  9.04726172485854      8.79955852926235      7.69373347178008
  Au  7.77559332980733      6.30650985947462      8.75240059561337
  Au  10.17969228882276      5.19820596689290      9.50469669985196
  Au  12.78190048186468      5.98077688248521     10.05481557515244
  Au  11.17428109010524      7.83143180277113      8.87146285654162
  Au  12.24512090008165      5.25414015330463      7.48968734572076
  Fe  9.75065052191641      6.37121502601940      6.98876862454985
