17
Coordinates from ORCA-job pbe
  Au  5.87982333723150      5.48533748371881      9.31174742836570
  Au  6.42366627788122      7.98697083501566     10.24076578857638
  Au  7.56967454668050     10.50091046103925     10.12686820144987
  Au  5.74270746370179      9.81821329786547      8.16815576610452
  Au  7.47777279736220      9.32458278804836      5.77717300167619
  Au  8.08814886531050     11.35375341518170      7.54333206811801
  Au  7.00400198543536      6.70996005904122      4.97577444992870
  Au  4.92857727635213      5.57314378226626      6.65308220923802
  Au  4.80615801728058      8.33640371572954      6.08420444214933
  Au  7.70119004920911      4.84681574953625      7.07904426325669
  Au  10.10797403093356      9.67130114338630      6.64781717336819
  Au  9.35195761649985      7.01933353629181      6.46377986225601
  Au  10.77418829779308      7.89658748691334      8.66570351263141
  Au  10.24591325199641     10.58561907844807      9.31497197391536
  Au  9.18992196902424      8.39154940274516     10.89257265363862
  Au  8.65398946881092      6.19918330957804      9.30846656767915
  Cr  6.79304018849735      7.36789635519462      7.61906795764798
