17
Coordinates from ORCA-job pbe
  Au  6.33647271856112      5.02050068804450      7.12777903094559
  Au  8.95023988521337      6.20732514813785      7.13139176641467
  Au  4.47669108495833      7.01597077072315      8.33814766253741
  Au  7.14370775261784      6.61091019766935      9.31922894611566
  Au  8.70261017855476      8.85346972835312      8.42487792936450
  Au  4.47058377253818      9.28762636785392      6.63245099423276
  Au  6.02215265603343      9.20408228628960      9.13776074744651
  Au  4.61560092453919      6.66766470261434      5.52228570452456
  Au  9.80040292554283     10.58159765762417      6.51451848758109
  Au  7.02538085975466     10.61659242135069      6.98911847873797
  Au  8.06361055805823     10.91967405297574      4.37752845362519
  Au  5.27769406282458     11.26123171887335      4.87994243094817
  Au  11.00688728288342      8.06983118176484      7.03075505171297
  Au  6.29685011550356      8.71844334849405      4.34277495182387
  Au  7.27787396673321      6.13617356764073      4.74087790532378
  Au  8.95473593860092      8.29529173888354      5.09894271540789
  Fe  6.68211672708214      7.72002864270680      6.90889881325735
