11
File written by ORCA
Au   -1.301006    7.202500    9.159035
Au   -1.673269    7.211951   12.048074
Au   -3.693663    7.201076   10.293628
Au    1.044900    8.601238    8.692612
Au    1.031204    5.773580    8.704976
Au    0.487166    5.804773   13.094463
Au    2.126485    9.523306   11.025718
Au    0.500559    8.600143   13.090179
Au    3.014273    7.194110   12.256877
Au    2.113272    4.862573   11.042016
Fe    0.767604    7.197704   10.876310
