13
File written by ORCA
Au    4.342197   -3.434938   14.811389
Au    4.338033   -2.653241   17.427495
Au    2.879244   -0.998429   11.159525
Au    1.964290    0.054049   13.482187
Au    2.862566   -0.989200   15.816453
Au    4.354545    1.245628   14.896556
Au    6.743527    0.046949   13.498457
Au    5.829617   -0.997599   15.825197
Au    5.838030   -0.995670   11.167553
Au    4.354691    1.244236   12.093263
Au    4.365568   -2.672110    9.567202
Au    4.348966   -3.438360   12.187291
Mn    4.352642   -1.114534   13.495613
