13
File written by ORCA
Au  -13.079766   -3.520050    6.655216
Au  -10.449299   -2.529862    6.511573
Au  -10.554421   -2.453016    3.772021
Au  -13.189350   -3.443108    3.757143
Au  -12.980971   -6.140000    3.568975
Au  -10.087137   -4.918020    2.746889
Au  -10.352347   -7.387950    3.579956
Au  -12.911018   -6.226643    6.636755
Au  -12.601567   -8.440091    5.031764
Au  -10.185325   -9.755741    4.935455
Au   -9.961359   -5.049322    7.380924
Au  -10.287241   -7.468849    6.431656
Cr  -11.291833   -4.757441    5.104964
