13
File written by ORCA
Au   -6.499058   -1.238169   13.564370
Au   -6.394095   -0.742993   10.795932
Au   -3.657245   -0.576609   10.859711
Au   -3.603730   -1.066728   13.631041
Au   -3.342639   -3.750320   13.917782
Au   -2.566997   -3.057844   10.841714
Au   -3.330898   -5.458365   11.562022
Au   -6.407169   -3.928474   13.893425
Au   -4.743490   -6.118434   13.979176
Au   -4.621718   -7.851316   11.843589
Au   -7.196198   -3.331053   10.785230
Au   -6.179567   -5.624338   11.539368
Cr   -4.923302   -2.741080   12.018609
