11
Coordinates from ORCA-job pbe
  Au  5.83392806695686      7.53348312806452      6.39637249477714
  Au  11.70641017414881      4.76845014477821      7.17144603491888
  Au  7.56993927815698      5.67848467312911      5.22067361842313
  Au  9.06496631889218      4.04914953083278      6.90822683627769
  Au  10.11400222050738      6.75839286545713      6.22557539105684
  Au  6.89525227217741      4.16156206471393      8.48140241443111
  Au  5.54464712171206      6.59679767555709      8.97967878728859
  Au  7.94304045337595      6.71558480187400     10.36062110071351
  Au  10.03431756489270      5.65540506254846      9.14778231360893
  Au  8.38913161589282      8.76475717149242      6.53033651398863
  Cr  7.89209251328663      6.46218250155223      7.72207102451548
