17
File written by ORCA
Au   11.281398    1.963327   -9.109589
Au   10.442128    0.925909   -6.533987
Au    9.008604   -1.474781   -6.886712
Au    9.028172   -2.001562  -10.362230
Au   10.413190   -3.419879   -8.315625
Au   11.444223   -0.814279   -8.402436
Au   11.782139   -2.472691  -10.596106
Au   10.690771    0.088691  -11.114775
Au    9.030589    2.306421  -10.802706
Au    6.757213    1.963917   -9.139509
Au    7.376516    0.088194  -11.135572
Au    6.277530   -2.472876  -10.630410
Au    7.615586   -3.415137   -8.327899
Au    7.560300    0.922151   -6.553243
Au    6.581029   -0.814010   -8.433726
Au    9.010284    3.032916   -7.830111
Fe    9.016511    0.476705   -8.839435
