17
Coordinates from ORCA-job pbe
  Au  10.39336028753855      7.62554727933006      8.06869712395360
  Au  4.46216702453628      8.89154043475965      5.57803891459308
  Au  9.07567520662631      5.18905815584754      8.45214507142331
  Au  5.81614592623450      6.52004918910670      5.21081695096944
  Au  6.67248667686461      4.82920637964213      7.19766924517610
  Au  8.51461552154991      6.83242414177232      6.18615505282957
  Au  7.22152100803092      8.92461219328551      4.94541438366158
  Au  8.71839639591489      9.67037277899915      7.13745132562523
  Au  6.25161775144814     10.87114862069479      6.66765431383860
  Au  4.38332988981932      9.58875350626478      8.30481182222492
  Au  5.07876194871839      6.97739609751484      7.84367575783962
  Au  9.21188923171110      6.84392631093026     10.75424069683416
  Au  6.88071228146720     10.27781375123622      9.32063176331215
  Au  6.68891621571426      5.55010257721297     10.00033748386248
  Au  5.52226052712002      8.02392582956142     10.38274830008554
  Au  9.39494801193099      9.50340529384681      9.93563629561896
  Mn  7.67658742477355      7.66322849999396      8.71291157815207
