11
File written by ORCA
Au   -6.511426    8.111153    9.740846
Au   -7.744263    9.526623    7.689229
Au   -6.275850    7.835076    6.040862
Au   -6.017006   10.706810    5.855934
Au   -3.619194    7.597845    6.240371
Au   -3.359570   10.466221    6.033525
Au   -3.853673    7.867721    9.915938
Au   -2.124997    9.049527    8.084629
Au   -3.596746   10.736318    9.734811
Au   -6.252703   10.981494    9.531774
Cr   -4.936392    9.288052    7.886346
