13
Coordinates from ORCA-job pbe
  Au  6.15095389878225      8.55508615337012      3.69978066196388
  Au  8.30847500481168      6.82398983024359      4.18124651038086
  Au  7.67984382685960      5.06497990266406      6.21499476936440
  Au  4.95912888470959      5.61479271072827      6.64331292947367
  Au  4.65850516794290     10.59875350055523      4.69031948251827
  Au  4.18623162601317      8.08628210645296      5.72062204009303
  Au  8.36083165584219      9.45904192103008      5.14624479148520
  Au  6.90853395039094     11.51874810958802      6.16106442892003
  Au  5.16050473387845      7.81251884197885      8.38478081832179
  Au  7.76665289006300      6.74888570648765      8.46198485971839
  Au  7.45533204342101      9.41202837570916      7.85610970008123
  Au  4.70364417841046     10.36930445358288      7.50139655660089
  Fe  6.73884524887466      7.52218432760904      6.14091226107831
