13
Coordinates from ORCA-job pbe
  Au  6.15095389977512      8.55508628925988      3.69978065601450
  Au  8.30847504607730      6.82398979197483      4.18124651536806
  Au  7.67984379981415      5.06497988627262      6.21499477937482
  Au  4.95912881879517      5.61479272982402      6.64331293891535
  Au  4.65850509915196     10.59875344945023      4.69031948781907
  Au  4.18623168140866      8.08628215772130      5.72062205963414
  Au  8.36083177788010      9.45904189200289      5.14624477223571
  Au  6.90853388220609     11.51874814870931      6.16106435722613
  Au  5.16050474654393      7.81251879904816      8.38478082070428
  Au  7.76665291528313      6.74888570525493      8.46198489306538
  Au  7.45533206369420      9.41202833997465      7.85610968726595
  Au  4.70364411737112     10.36930444369772      7.50139657960087
  Fe  6.73884526199896      7.52218430680935      6.14091226277569
