11
Coordinates from ORCA-job pbe
  Au  5.88940908824005      8.02346020889451      9.31831014228166
  Au  5.83526900314954      8.28236148838781      6.34534269047948
  Au  4.51029593533383     10.01336085256413      8.08615562796617
  Au  7.19336520268321     10.40692401021863      7.79961166904320
  Au  7.79241068753434      6.20964277033059      9.84112199562929
  Au  9.13170307690601      5.32567396261549      7.64095934193191
  Au  9.30936714413009      4.47680755507768      5.15152087275303
  Au  10.31304397587591      7.40738513560908      9.02677367186416
  Au  9.78503606939363      9.88602349115189      8.11610812698474
  Au  7.48992145305259      6.42416053766953      5.53743689657154
  Mn  8.05389744370056      7.87089491748024      7.72150171449449
