17
File written by ORCA
Au   12.943341   -3.345749    2.048763
Au   15.591421   -0.223600    3.430895
Au   15.296688   -3.009904    3.457595
Au   17.452194   -1.763960    2.036111
Au   13.396213    1.340398    3.464785
Au   13.239048   -1.449837    4.423779
Au   10.733635   -2.475815    3.494364
Au   10.968347    0.210334    4.394236
Au   15.581741   -0.215043    0.652872
Au   15.293616   -3.001459    0.642739
Au   13.235967   -1.456060   -0.340828
Au   10.736360   -2.482629    0.594065
Au   10.959377    0.200170   -0.317317
Au    9.385312   -0.377391    2.040528
Au   11.051073    1.944902    2.041022
Au   13.382363    1.340515    0.598189
Cr   12.141253   -0.629095    2.039214
