15
File written by ORCA
Au   -1.044169   -5.190052   13.403962
Au   -2.687367   -6.725820    8.653028
Au   -1.383295   -5.224553   10.638581
Au   -2.966830   -4.026522    8.650955
Au   -5.702310   -4.292843    8.505820
Au   -4.672170   -2.706586   10.523785
Au   -3.005425   -3.538476   12.476889
Au   -5.366993   -7.023913   12.713065
Au   -5.650309   -4.275692   12.713466
Au   -3.737811   -5.463832   14.435018
Au   -2.627766   -7.208203   12.484283
Au   -6.879109   -5.788861   10.682121
Au   -5.420073   -7.027816    8.513689
Au   -4.081334   -8.366768   10.529306
Mn   -4.168788   -5.513507   10.648703
