15
File written by ORCA
Au   11.640700   -5.214284    6.708091
Au    8.864177   -6.540289    2.446320
Au    9.618947   -5.187610    4.790975
Au    8.902662   -3.826843    2.439641
Au   10.418744   -3.837090    0.142634
Au   11.357906   -2.374766    2.294183
Au   11.980123   -3.378323    4.721201
Au   13.730944   -6.632378    2.689747
Au   13.771430   -3.869892    2.685409
Au   14.078374   -5.248429    5.142742
Au   11.932828   -7.067122    4.731180
Au   12.935791   -5.240903    0.372829
Au   10.384933   -6.586374    0.152093
Au   11.275289   -8.065074    2.312750
Mn   11.290581   -5.217421    2.544351
