11
Coordinates from ORCA-job pbe
  Au  10.40355774415830      5.44032022209669      7.81024658069064
  Au  8.55347617689826      3.46618911727768      8.57369074365163
  Au  10.24512294154951      4.48190377009792     10.53653851276961
  Au  7.57730301999188      4.19116126314966     11.28509930138345
  Au  8.86120510720899      6.58307941139378     11.99998964522268
  Au  6.01036516055197      4.74134995501120      8.96143327899726
  Au  8.07952972624494      8.52469384862819     10.36212636911948
  Au  7.37244690039865      9.82647617174608      8.02775369769421
  Au  9.12405307054544      7.74923315901578      7.52586305258685
  Au  6.30681293602459      7.33935787334513      8.34216501912556
  Cr  8.34443654642724      6.02510314823788      9.42740125875847
