16
Coordinates from ORCA-job pbe
  Au  7.11104924997857      9.53163840534942      7.12354174190122
  Au  4.97957205722103      5.37186962421784      7.23710342453824
  Au  6.86983062781701      6.93456185838724      6.03008653591358
  Au  6.99356976272954      4.04158503029591      8.50373625770677
  Au  9.38796981569234      8.08873407095361      6.31622630138957
  Au  9.56891803748962      7.74283841219088      9.14765071544802
  Au  8.94144685127527      5.58469884472164      7.31735680222909
  Au  9.63711568163795     10.30490239630332      7.99513019103566
  Au  8.87621039755640      5.21972166760683     10.12930242407474
  Au  7.98039660741927      7.43570739592038     11.44621619692608
  Au  5.51555179314421      8.45310005104516     10.84826937075094
  Au  7.75985654038942      9.80417681133698      9.97748906584464
  Au  4.23773462614294      6.35867633762561      9.74268192143058
  Au  5.24056373315085     10.48264262402254      8.93601200172405
  Au  4.77638180883294      8.12877585740534      7.60254950922296
  Mn  6.85982868952224      6.80094542261696      8.92519532986294
