16
Coordinates from ORCA-job pbe
  Au  7.13279918922699      9.58098634751066      7.03344731150947
  Au  4.88891213266378      5.55033922802983      7.30557523188453
  Au  6.77217662993190      6.95193350191691      5.94441726353496
  Au  6.79578869698358      4.09221405128795      8.63056356403427
  Au  9.32750326574715      7.94358128796265      6.52921901167175
  Au  9.61365140901766      7.83958433382764      9.44616159585055
  Au  8.73855973282993      5.36210959504048      7.11607505004298
  Au  9.60769303654486     10.24074473605111      8.08465697559383
  Au  8.89700917745664      5.26715818283951      9.98017855560762
  Au  7.56514031609890      7.24263118196635     11.32139243743751
  Au  5.25994867693613      8.55740468330626     10.54772263273630
  Au  7.67720499669872      9.83934269011051     10.05844398845336
  Au  5.25914061963950      5.82437363027206     10.18389025517857
  Au  5.33769832827248     10.69339126411285      8.80929376017560
  Au  4.77107164187144      8.23660626714886      7.63698002357687
  Mn  7.09169843007971      7.06217382861570      8.65053013271060
