16
Coordinates from ORCA-job pbe
  Au  7.16856552743228      9.74910728280181      6.96012700601075
  Au  5.23921587581606      5.60296523761617      7.48814303040223
  Au  6.71026313634194      7.23838629286979      5.77759794941111
  Au  6.77176700455190      3.65308440664097      8.74851698751375
  Au  9.27403706392634      7.78912297113727      6.75006308889696
  Au  9.73018547582540      7.86780368787471      9.66079799312507
  Au  8.23698453901091      5.27370091170504      7.02724478149708
  Au  9.66481488504584     10.16895394854662      8.11896484611936
  Au  8.68135521504613      5.34983593284546      9.84940679895602
  Au  7.58990723560766      7.39160167971003     11.39785241277778
  Au  5.18243493886885      8.36571200973832     10.35727125448967
  Au  7.64359458442184      9.83250536427010     10.00567490272328
  Au  5.68020966537768      5.67825405552236     10.31151152291240
  Au  5.27644999273486     10.65175815155482      8.79216230756058
  Au  4.72941477281428      8.28967566761118      7.44611674064925
  Mn  7.15679636717722      7.38210720955446      8.58709616695326
