17
File written by ORCA
Au    7.071337   13.102413   -2.404899
Au    4.404017   12.579256   -2.690045
Au    5.137849   13.506207   -0.127247
Au    7.874765   12.775488    0.260687
Au    6.228010   13.335056    2.412134
Au    8.953882   11.148687   -1.805331
Au    3.174902   11.161269   -0.602721
Au    4.397188    9.741507   -2.692109
Au    7.061893    9.203309   -2.404817
Au    7.867251    9.528028    0.262150
Au    5.746469   11.157772    4.169859
Au   10.098442   11.143695    0.793636
Au    6.212772    8.977384    2.411219
Au    8.053457   11.151260    2.620451
Au    5.131577    8.804157   -0.130957
Au    4.690856   11.160501    1.604530
Fe    5.949490   11.154456   -0.985309
