17
File written by ORCA
Au    7.015787   13.107157   -2.538057
Au    4.343936   12.582145   -2.772946
Au    5.125217   13.509741   -0.224446
Au    7.869451   12.780930    0.111955
Au    6.263080   13.339478    2.293981
Au    8.910628   11.154762   -1.973934
Au    3.155291   11.163423   -0.662807
Au    4.339029    9.744392   -2.774764
Au    7.009040    9.208048   -2.537637
Au    7.864209    9.533466    0.113692
Au    5.816200   11.161958    4.060545
Au   10.103889   11.150700    0.603038
Au    6.250837    8.981798    2.293531
Au    8.093632   11.156953    2.468005
Au    5.122123    8.807687   -0.227845
Au    4.712506   11.163821    1.515530
Fe    5.922194   11.158504   -1.097531
