16
Coordinates from ORCA-job pbe
  Au  9.58852386238430      9.18851866889428      9.54848267859250
  Au  7.62376011781392      8.57337503473100     11.42586356640771
  Au  5.71398246092240      6.47199669320207     11.16002805027905
  Au  7.31869606760864     10.76883871131003      9.80683992246120
  Au  4.95001870256718      6.13828135949929      8.55314050330229
  Au  5.48068345027000     10.78598594475860      7.71342516498919
  Au  5.33979960156236      8.72074431101212      9.59857677405242
  Au  10.42342554109504      6.60672505529015      9.74958339896242
  Au  9.66027792679161      7.46375985986884      7.21832493454346
  Au  8.39043499442851      5.92208805835455     11.43085079313324
  Au  8.94711292375650      4.85027845331334      8.15214388267941
  Au  7.87843209579264      7.92192028100114      5.17499573200757
  Au  6.89203500539991      5.76228678549224      6.65623493693991
  Au  8.01869182488906      9.70799869951491      7.28175094653477
  Au  5.56362843408019      8.18931782168058      6.76382530274399
  Mn  7.59951480063718      7.07250022207630      9.03803503237021
