16
Coordinates from ORCA-job pbe
  Au  9.76756395925242      9.48099941062847      9.38473734214091
  Au  7.83839371580179      8.42478750242887     11.10013491939048
  Au  5.62433958799135      6.54157892348046     11.24341090964212
  Au  7.36778102318208     10.78641428217763      9.76870842495624
  Au  4.83283638731605      6.20805818776979      8.56306200885981
  Au  5.45206979269227     10.81611839128150      7.72959642908451
  Au  5.42636114084523      8.74361712433991      9.59287064552296
  Au  10.02444964909026      6.72565388282877      9.87983488222162
  Au  9.67299200025210      7.63901762600413      7.30037227898839
  Au  8.30000792668860      5.82827197341912     11.84011345256563
  Au  9.23675347676797      4.96644501431517      7.73193750329382
  Au  7.92903461887439      7.89037381598544      5.20398115211761
  Au  6.84624040197179      5.74540273849243      6.68340337402470
  Au  8.01194892921458      9.84226218337423      7.18322939717042
  Au  5.62769767468765      8.21561563743967      6.78468764042155
  Mn  7.43054752537119      6.28999926603414      9.28202125959887
