13
File written by ORCA
Au   -2.095766  -11.226338    2.970129
Au    1.581831   -9.233774    4.943224
Au    0.650010  -10.916585    2.948751
Au   -0.465675  -13.269022    4.369334
Au    1.753742  -12.049483    5.399352
Au    0.692373  -10.480585    7.423007
Au   -2.807145  -12.563633    5.477790
Au   -4.643330  -10.980526    6.705664
Au   -4.683532  -11.032446    3.829583
Au   -3.008693   -9.244638    5.004769
Au   -0.731802   -8.272854    6.041055
Au   -2.070989  -10.489151    7.486200
Fe   -0.708658  -10.777485    5.207576
