15
File written by ORCA
Au   10.373145    0.591246   -1.583865
Au   12.298800    0.909785   -3.579565
Au   14.249382    0.549306   -1.616608
Au   13.780839    4.623191   -0.181016
Au   13.851837    2.076290    0.739067
Au   10.842405    2.118458    0.759595
Au   12.315121   -0.210043    0.244656
Au   13.776410    5.709213   -2.778310
Au   14.695585    3.126104   -2.466051
Au   12.297977    3.637540   -3.905703
Au   12.405081    7.025393   -0.714023
Au   10.917634    5.754466   -2.736666
Au   10.987437    4.668918   -0.139034
Au    9.949452    3.190435   -2.373334
Fe   12.335454    2.466214   -1.391999
