13
Coordinates from ORCA-job pbe
  Au  8.77459278845931      5.31296365841588     11.06986320046796
  Au  6.39153678323881      4.38523498793788      9.89477634804853
  Au  7.76301599289448      3.37960044701444      7.74306852061028
  Au  10.22485870144054      4.25326089432175      8.79159264539279
  Au  10.64453537595005      6.72913847667375      7.76887138833669
  Au  8.31183452718009      5.35805421097201      5.97388495281744
  Au  8.61320477251557      7.95831588687707      6.08661543388051
  Au  9.14995391721646      7.85486815505456     10.20251770402497
  Au  10.06124619133106      9.39655296911805      8.11353160103012
  Au  8.27622774728172     10.64870423189723      6.43297699053466
  Au  6.03696966088268      7.05932219963621      9.63967468743826
  Au  7.22389457707423      9.00509314626518      8.34870517127714
  Cr  8.20306074453485      5.98482331581591      8.54933152614056
