11
File written by ORCA
Au    0.137752   -2.687794  -12.345826
Au    3.451760   -5.031800  -10.808801
Au    3.616352   -5.060570  -13.453786
Au    1.391591   -3.671924  -14.642923
Au   -0.968914   -5.059137  -13.771368
Au   -1.138657   -5.037318  -11.064965
Au    1.097377   -3.656152   -9.902155
Au    1.391334   -6.433574  -14.647932
Au    1.098135   -6.417300   -9.902650
Au    0.147256   -7.407420  -12.337529
Fe    1.279339   -5.045735  -12.272248
