11
File written by ORCA
Au    0.097745    2.883310   12.302017
Au   -3.343753    5.075555   10.822287
Au   -3.436948    5.141598   13.470081
Au   -1.129329    3.857262   14.617828
Au    1.152025    5.317673   13.659408
Au    1.248422    5.257761   10.949975
Au   -0.964445    3.774625    9.871495
Au   -1.233918    6.616680   14.580315
Au   -1.070152    6.533429    9.829507
Au   -0.091388    7.598471   12.221336
Fe   -1.134236    5.195163   12.224075
