17
Coordinates from ORCA-job pbe
  Au  9.79689767850708      8.27542987063809     10.34694660282673
  Au  10.01834537551404      6.00277723642486      8.75794371001388
  Au  7.31027336984567      9.50277228406196     10.14133665517303
  Au  5.26291543846273      5.48719659423098      8.54705216263520
  Au  7.48022949764245      6.73256476210018      9.71482904695377
  Au  5.14416365149204      8.30149421437298      8.90392812440627
  Au  11.09765279268264      8.40312451839486      7.87338424973452
  Au  9.46527911147682     10.52029882745728      8.71326022384453
  Au  7.83319654478925      4.81530259670128      7.53840352084600
  Au  9.48388049445087      9.73725610546202      6.04678418703817
  Au  9.35722799479108      6.92744952578301      6.18252791193784
  Au  7.22164592044366      5.68031572688909      4.90145479356808
  Au  7.30837893083328      8.52336388430649      4.83427284069855
  Au  4.51226716330279      5.97237670227107      5.79669087137198
  Au  4.79612931611155      8.81447546667135      6.13062277339430
  Au  7.01765763723247      9.95153721821945      7.37746550227566
  Cr  6.63873789242153      7.14443148601497      7.02004296328132
