17
File written by ORCA
Au   -8.168207   -5.466006    9.985989
Au   -6.313968   -7.539823   13.713821
Au   -8.635388   -7.003264   12.213604
Au   -4.137871   -6.552078   12.229895
Au   -6.549161   -5.171975   12.193338
Au   -8.745138   -8.578678    9.928297
Au   -7.532533   -9.567654   12.196494
Au   -4.738793   -9.287208   12.182259
Au   -6.568137   -5.066352    7.741569
Au   -8.664492   -6.940117    7.670906
Au   -4.904677   -5.173479    9.976004
Au   -4.156825   -6.499434    7.631052
Au   -4.743285   -9.236247    7.581696
Au   -3.760537   -8.052143    9.918407
Au   -7.532040   -9.498590    7.574718
Au   -6.075195  -10.072651    9.887298
Cr   -6.337419   -7.446995    9.083328
