17
File written by ORCA
Au    8.530962   -5.125325   -9.862583
Au    9.711904   -2.563142  -13.560724
Au   10.161191   -4.903917  -12.061905
Au    7.885370   -0.998719  -12.101469
Au    7.629440   -3.765376  -12.080229
Au   11.601042   -4.359336   -9.749576
Au   12.036366   -2.836763  -12.004674
Au   10.622105   -0.411128  -12.004902
Au    7.465439   -3.844097   -7.630883
Au   10.038485   -4.974593   -7.520882
Au    6.910907   -2.277223   -9.868891
Au    7.767053   -1.056026   -7.504164
Au   10.499292   -0.454584   -7.405900
Au    9.054177   -0.042301   -9.765938
Au   11.894654   -2.883277   -7.384789
Au   11.851951   -1.310404   -9.692216
Cr    9.558357   -2.641335   -8.932447
