17
Coordinates from ORCA-job pbe
  Au  4.26462065750264      5.55225887410180      6.84896004289309
  Au  8.01526171172365      9.86226582998178      7.96959379415372
  Au  9.72337959245668      9.10744173304484      5.84630537122386
  Au  4.65648541242098      7.89537617460228      8.50973959575633
  Au  5.98932941599416     10.07222952156896      9.94867878512287
  Au  6.14016525332766      6.14354104978692      4.84186824907154
  Au  7.05053176854600      8.74946287651153      5.45701975684484
  Au  4.38502406467245      8.12463655134172      5.72084217088375
  Au  5.36873212524159     10.22315396810129      7.20889399258559
  Au  9.53902203228584      7.62713505477612      8.27998357389653
  Au  5.86755835150936      7.50593417811992     11.02429952295070
  Au  7.89246662454119      6.00440824449315      9.86203888084806
  Au  8.72192086240815      6.47598018088231      5.75656645071523
  Au  5.19545590798696      5.32262705262983      9.41885673128107
  Au  9.59840109531108      4.88065651365865      7.97456227151363
  Au  6.94310839124062      4.98153042719975      7.25665318370318
  Mn  8.16844442283083      8.63766472919896     10.31347504655575
