15
Coordinates from ORCA-job pbe
  Au  7.22414412623776      6.54842843705031      7.98180467067937
  Au  8.87016701862855      4.55844286573531      7.00935894394306
  Au  11.01794534199348      9.28789304561786      8.41128260306538
  Au  10.31777041603944      6.63703115223908      8.01084568615968
  Au  6.41067024937548      9.13912763986014      8.66600313497636
  Au  8.64924618608589     10.89729078789356      8.80643671512388
  Au  8.74958558407186      8.16387146087366      9.79901415770828
  Au  10.95536209436617      8.22999484386433      5.71541076495148
  Au  10.09302533084158     10.92948900144719      6.29370081941839
  Au  8.60504559485000      6.67504928796295      5.29324579488727
  Au  4.77895275118581     10.26920491961100      6.78031507606492
  Au  7.32687684597714     11.07682009309184      6.26985716873654
  Au  6.30600232522238      8.19163839964303      5.79590589252764
  Au  8.57442239890256      9.31731712381871      4.44317495408791
  Cr  8.66493750622182      8.74281682129102      7.12132056766987
