15
Coordinates from ORCA-job pbe
  Au  4.62092408586370      7.96259209373742      8.65704192778792
  Au  6.17058977705288      9.86851104881751      9.76296319750793
  Au  8.93975703575753      9.83344617054139      9.58297581464316
  Au  6.44224018035931      5.69069977054021      8.51467779827647
  Au  7.51178697671054      7.39563750917627     10.34573060182289
  Au  9.77552580297049      7.53370295981580      8.40922073015314
  Au  7.42529916595141     10.93346564007120      7.44475179276883
  Au  7.00649864404540      9.32595977599273      5.31731194828679
  Au  5.25761696712196      7.09793259992358      6.17480227891798
  Au  6.96394496016953      6.86159461107317      3.99778357162129
  Au  9.04131136538963      7.43661970893163      5.77547740056490
  Au  8.92386005945388      4.93395766612627      4.52308568734702
  Au  6.50935679992832      4.66255066050007      5.93041668319269
  Au  8.90673468376460      5.13938624196749      7.32355974180894
  Cr  7.23110780546056      8.25836936278492      7.81634106529973
