13
File written by ORCA
Au   -6.011845   16.263115    2.963117
Au   -4.151203   14.244853    3.316405
Au   -8.558135   15.225180    2.256119
Au   -6.071767   14.290933    1.030783
Au   -3.007971   11.798338    3.389245
Au   -6.870290   13.823764    4.006461
Au   -6.961504   11.166699    4.366647
Au   -4.709702    9.654051    3.247538
Au   -7.116903   12.022508    0.203619
Au   -8.748378   12.476724    2.510510
Au   -7.069201    9.690936    1.976505
Au   -9.350278   10.437606    0.764150
Mn   -5.436626   12.041538    2.324862
