13
File written by ORCA
Au   -2.410108   16.547838   -5.456344
Au   -3.362840   14.057307   -4.714903
Au    0.265390   16.406170   -6.395703
Au   -0.638407   15.031066   -3.977329
Au   -3.471826   11.412432   -4.175941
Au   -1.538122   14.309314   -6.872175
Au   -0.797860   11.764959   -7.292081
Au   -1.392446    9.891819   -5.112877
Au    1.364129   13.324574   -3.978359
Au    1.170166   13.821438   -6.789991
Au    1.102966   10.808216   -5.455303
Au    3.272958   12.362712   -5.779821
Mn   -1.106800   12.508010   -4.720718
