17
File written by ORCA
Au  -10.583818    0.672208    2.432594
Au  -11.432136    3.198811    1.685275
Au  -14.396856    3.196498    1.688963
Au  -15.236203    0.667573    2.433537
Au  -15.134876   -0.893639    0.146984
Au  -16.121533    1.743011   -0.039019
Au  -12.907357   -0.806512    1.820777
Au  -12.915748    5.181310    0.448469
Au  -14.335135    3.462963   -1.191751
Au  -12.914473    2.560327   -3.425043
Au  -11.491636    3.469423   -1.196051
Au  -11.476832    0.737731   -1.945446
Au   -9.700630    1.756323   -0.038213
Au  -12.905095   -1.562057   -1.280426
Au  -14.345709    0.730933   -1.945266
Au  -10.677998   -0.883910    0.143910
Mn  -12.910699    1.570076    3.147265
