15
File written by ORCA
Au    7.596769   -6.595583   10.465373
Au    6.516119  -10.813092    5.442801
Au    3.880969   -8.234727    7.224496
Au    6.942408   -5.949487    7.875153
Au    8.250479  -11.028933    7.687618
Au    5.613361  -10.250063    8.010496
Au    5.461644   -7.959926    9.438437
Au    8.147019   -8.436844    8.515379
Au    8.041026   -7.461797    3.930401
Au    8.970053   -8.935825    5.932535
Au    6.406682   -5.597119    5.339290
Au    5.719446   -9.033606    3.632248
Au    5.769899   -6.338391    2.733222
Au    4.030218   -7.145898    4.811593
Cr    6.379702   -8.181524    6.192108
