15
File written by ORCA
Au  -11.924386   -1.030267    8.214879
Au   -6.725927    0.720873   11.968671
Au   -6.928390   -2.169244    9.075119
Au   -9.566078    0.089368    7.354837
Au   -9.507322    0.707170   12.566542
Au   -8.307180   -1.487943   11.380617
Au   -9.660354   -2.234517    9.162892
Au  -10.452926    0.393534   10.032319
Au   -6.878870    3.188078    8.848834
Au   -8.821057    2.555284   10.543494
Au   -7.281632    1.239157    6.806149
Au   -5.055476    1.373792   10.003309
Au   -4.734223    2.238112    7.315424
Au   -5.246472   -0.477014    7.918644
Cr   -7.595004    0.432853    9.386623
