13
Coordinates from ORCA-job pbe
  Au  11.94261967917617      8.67094773991509      7.88265230431172
  Au  8.25164400117937     11.42434303409328      7.33310980278748
  Au  5.89290056125870      8.72105752312721      5.10856774983057
  Au  10.06084367576788      6.44155563966119      7.88988975177678
  Au  10.51752447909674      7.83206604855624      5.53187520875715
  Au  7.82267882774978      7.15278410712926      6.30632174559635
  Au  10.74515946383348     10.63024447321980      6.17365267387410
  Au  7.98390895647131     10.03343446786017      9.82076216543266
  Au  10.24970638965157      8.30786706518500     10.12249243306597
  Au  7.74519466910480      7.23442587755478      9.19099126995434
  Au  6.36719629945493      9.32029462646753      7.72511416175019
  Au  8.41160646337094      9.76356286379286      5.02398863710433
  Mn  9.25312631388388      9.01132870343728      7.69536211575800
