13
File written by ORCA
Au    4.215014   -3.665934   -9.669886
Au    1.856227   -2.928772  -11.002597
Au    1.575656   -0.181682  -10.988379
Au    3.671422    0.611241   -9.295134
Au    6.931307   -3.621891   -9.740289
Au    5.655880   -1.276080   -9.056525
Au    4.136193   -3.673201  -12.460350
Au    6.850088   -3.630629  -12.580260
Au    5.800775    0.674147  -11.129571
Au    3.554078    0.595300  -12.825276
Au    5.529184   -1.283710  -13.178275
Au    7.684177   -1.319804  -11.186118
Fe    3.931437   -1.353587  -11.064254
