15
File written by ORCA
Au   12.901283    7.898897    0.021941
Au    9.577914    9.200132   -2.852586
Au   12.218785    6.986315   -4.758829
Au   11.063097    9.931680   -0.550461
Au   12.486654    5.825297   -2.254411
Au   12.446924    8.653729   -2.684036
Au    8.854189    6.073967    0.431955
Au   11.651632    5.543768    0.565498
Au    8.565042    8.694668   -0.238834
Au    9.367477    7.516664   -4.915031
Au   10.625225    5.807006   -6.647764
Au   10.090401    4.455526   -1.500851
Au   10.311661    4.901815   -4.100387
Au    8.452231    6.594540   -2.462966
Fe   10.618065    7.311289   -1.176741
