15
File written by ORCA
Au   -6.468008   -1.157414   10.668196
Au   -5.159633    2.788704    9.688089
Au   -4.140135    0.185391   10.360692
Au   -5.157512   -0.291200   12.929287
Au   -7.883481    2.467700    8.868093
Au   -5.975899    0.525642    8.325920
Au   -8.543986   -0.293798    9.032855
Au   -9.051515   -1.201218   11.613427
Au   -9.088626    3.637243   10.990803
Au   -6.506347    3.631918   11.938782
Au   -8.580868    2.742302   13.572247
Au   -4.165716    2.319790   12.267129
Au   -6.007708    1.959418   14.291431
Au   -7.884744   -0.011960   13.749238
Mn   -7.754402    1.227058   11.308878
