15
File written by ORCA
Au    0.028963  -10.730993   -6.467618
Au    3.838522   -9.339957   -5.127251
Au    1.312233  -10.283445   -4.128900
Au    1.117865  -12.888024   -5.147855
Au    3.455681   -8.558502   -7.854438
Au    1.451309   -8.224195   -5.963634
Au    0.732624   -9.013733   -8.537819
Au    0.106829  -11.675661   -9.050528
Au    4.852735  -10.546008   -9.047823
Au    4.925771  -11.489167   -6.464806
Au    4.230914  -13.207450   -8.545176
Au    3.635999  -11.954042   -4.134909
Au    3.506695  -14.005132   -5.977979
Au    1.504949  -13.674031   -7.871905
Mn    2.478441  -11.116559   -7.733472
