17
File written by ORCA
Au    4.034553    4.666362   10.645062
Au    5.294659    3.862891   12.921809
Au    5.521971    2.446066   15.285521
Au    5.269469    1.014720   12.934366
Au    2.442263    0.032528   13.048944
Au    3.965895    0.155677   15.345200
Au    1.164710    1.018505   10.790924
Au    3.095449    2.449558    9.166906
Au    4.003967    0.228194   10.654975
Au    1.184098    3.913434   10.779414
Au    1.351793    1.091985   15.390871
Au    0.623021    2.478809   13.114037
Au    1.377615    3.860491   15.386112
Au    3.267279    2.467884   16.942173
Au    4.004404    4.760461   15.323957
Au    2.472166    4.892627   13.035320
Cr    3.191290    2.455653   11.927570
