11
Coordinates from ORCA-job pbe
  Au  6.98987732757583      6.82819630029245      7.63651046408392
  Au  8.52755558726694      4.77160578030885      8.08441978162190
  Au  10.16274947916992      2.63809111486675      8.11110083218547
  Au  8.35342699483611      8.04238737855254      5.22085342832147
  Au  6.02222520065639      9.06181390674287      6.37198558113932
  Au  8.33421763402769      9.43054772157998      7.74754044856309
  Au  10.68775044456865      6.82127976423137      5.07724594449909
  Au  11.18420773150714      4.82643726865209      7.05306004081769
  Au  12.37667808146218      7.18485503057298      7.37371623045581
  Au  10.78332604975842      9.03360690488490      8.63273268050415
  Fe  9.61608579917069      7.06675326931502      7.40096323780809
