15
Coordinates from ORCA-job pbe
  Au  5.43214909946741      9.57496366393490      7.69853445522883
  Au  7.87996780958603     10.29622228736566      6.39113436030801
  Au  6.44763094108953      5.52022423356745      6.13792427454150
  Au  5.41294723850043      7.05792303394238      4.14355603482432
  Au  7.93488131362717      7.74659714499544      5.08684533887429
  Au  9.81690398250612      8.47308498390264      7.24285635525124
  Au  3.67503863465130      8.31317205702377      5.93960869031469
  Au  5.77835432192535      9.74618600332716      4.79573959172642
  Au  8.01701336102207      9.79712276752247      9.13300358650617
  Au  9.00169941760804      7.14801076674768      9.68435066769819
  Au  4.67136197305970      6.81290407754832      7.98072296691839
  Au  6.90885854654911      5.34103507652618      8.94061162366162
  Au  9.09413499449703      5.80859103973407      7.14769174146308
  Au  6.25539546666456      7.89074175872399     10.08638125004218
  Fe  7.26374723924621      7.68641690513793      7.62900172264088
