15
File written by ORCA
Au   14.612838    3.812749   -5.165255
Au   12.751377    4.802506   -3.254590
Au   13.341278    1.292536   -1.038901
Au   11.920098    3.809417   -0.919278
Au   14.837760    3.162011   -2.420868
Au   15.055898    1.159591   -5.573478
Au   15.016285    0.380006   -2.924110
Au   10.462496    2.545307   -2.852097
Au   12.588138    5.620098   -5.834251
Au   10.653909    1.235198   -0.429675
Au   11.006316    3.505483   -5.326224
Au   10.721161    0.783907   -4.979361
Au   11.576922   -0.295661   -2.565685
Au   13.141286   -0.704278   -4.760955
Mn   12.966926    1.954494   -3.946649
