15
File written by ORCA
Au    4.179495  -14.238420   -3.064897
Au    5.678454  -14.566533    0.316648
Au    3.978948  -12.045576   -4.921022
Au    3.124165  -13.688093   -0.606156
Au    3.102820  -11.498036   -2.364842
Au    6.430764  -13.238052   -4.438806
Au    5.645379  -10.542751   -3.236327
Au    6.817359  -10.311256   -0.732257
Au    8.076507  -11.917338   -2.683397
Au    8.071608  -13.119092   -0.193684
Au    6.353162  -11.836804    1.522869
Au    6.893201  -14.755009   -2.172461
Au    4.098050  -10.905004    0.108331
Au    3.936373  -13.109655    1.963133
Cr    5.547043  -12.554496   -1.458592
