15
File written by ORCA
Au   -4.130280   14.006627    4.043459
Au   -5.663794   14.558531    0.706826
Au   -3.913169   11.695680    5.748267
Au   -3.101146   13.619628    1.542839
Au   -3.064233   11.318002    3.152477
Au   -6.368403   12.918728    5.371561
Au   -5.598782   10.308479    3.985299
Au   -6.796920   10.243777    1.483746
Au   -8.033842   11.717908    3.549868
Au   -8.053282   13.081747    1.145192
Au   -6.354265   11.914941   -0.670236
Au   -6.852459   14.582547    3.215470
Au   -4.085749   10.890417    0.655993
Au   -3.940628   13.212869   -1.050486
Cr   -5.516433   12.433382    2.343611
