13
File written by ORCA
Au    2.545755    9.007410   12.424025
Au    1.199100    7.654666   10.470151
Au    1.693284   10.387994    7.777066
Au    1.690663    7.646678    7.772118
Au    1.212686   10.389236   10.478237
Au    3.424820    6.227895    9.464709
Au    5.012777    9.013670   13.679191
Au    4.795073    7.451009   11.472104
Au    5.835417   10.334653    8.951591
Au    5.829394    7.676660    8.945461
Au    4.791229   10.580408   11.475200
Au    3.438430   11.803646    9.459728
Mn    3.449430    9.015047    9.460497
