13
File written by ORCA
Au    8.900855    9.198001    8.839810
Au    6.715093    7.805042    7.977759
Au    5.576685   10.507684    5.454315
Au    5.616592    7.766674    5.465210
Au    6.686145   10.539468    7.963377
Au    8.023229    6.389243    5.907805
Au   11.647844    9.247542    8.503243
Au   10.260566    7.653554    6.801715
Au    9.669070   10.514677    4.115675
Au    9.704132    7.856925    4.127078
Au   10.207916   10.782495    6.790978
Au    7.940529   11.964261    5.868541
Mn    7.995698    9.176198    5.876805
