15
File written by ORCA
Au    5.372198  -10.157824   -4.212288
Au    3.968713  -12.515437   -3.128000
Au    6.924511   -8.995894   -6.283201
Au    3.893553   -8.971521   -6.336060
Au    7.873625  -11.280035   -5.310360
Au    6.712586  -12.552056   -3.091451
Au    7.727695  -14.070717   -5.225970
Au    5.453405   -7.818695   -8.251179
Au    2.886717  -11.238438   -5.383234
Au    2.996655  -14.031232   -5.284110
Au    5.425466  -10.579561   -8.075731
Au    3.910177  -12.784653   -7.654861
Au    5.368701  -14.982851   -6.407855
Au    6.894494  -12.807784   -7.615545
Cr    5.374310  -12.513311   -5.437093
