15
File written by ORCA
Au   -5.288337   -9.010453    6.374206
Au   -3.925262   -9.283797    8.976338
Au   -6.776579  -10.205547    4.275319
Au   -3.745275  -10.170181    4.281813
Au   -7.761675  -10.588213    6.714107
Au   -6.669181   -9.333045    8.976986
Au   -7.628771  -11.968375    9.141825
Au   -5.245528  -11.237309    2.271762
Au   -2.774594  -10.517220    6.730865
Au   -2.897880  -11.891637    9.163433
Au   -5.233049  -12.526891    4.719365
Au   -3.738727  -13.284053    6.847598
Au   -5.240513  -13.399434    9.346741
Au   -6.723019  -13.329280    6.833829
Cr   -5.264448  -11.283631    7.745541
