15
Coordinates from ORCA-job pbe
  Au  5.61724372463952      6.29722463062031      9.46684188485109
  Au  5.86104687323306      9.10252812950790      9.33802675930090
  Au  6.33122803324143     10.08775269763075      6.82180768466104
  Au  7.80181859868672      7.61867647686731     10.52780131615479
  Au  10.09156691527788      8.47939203548439      9.03636536561369
  Au  9.19023285389405     10.07867357794766      7.08405125609990
  Au  10.13420791262834      6.17033896597928     10.62210455726196
  Au  7.91632518308301      8.79741131900754      4.98653839287766
  Au  6.84808394340559      5.31049133758911      7.18444460829755
  Au  5.07884189515823      7.61683899737333      7.00768787235784
  Au  6.22862140174465      6.65274619345396      4.74642144515416
  Au  7.85203474533808      4.77237175379259      9.77461290858744
  Au  9.70826322384805      5.73519162564115      7.91855414286946
  Au  8.93321455194013      6.25599217653755      5.43244895036855
  Mn  7.81700046388043      7.83084562256637      7.66068717554314
