13
File written by ORCA
Au   -9.985976    5.199466   -8.112156
Au  -12.628156    5.116004   -4.481965
Au   -9.929973    5.214295   -3.570334
Au  -12.661383    5.130260   -7.144634
Au   -8.563319    5.084836   -5.858093
Au  -11.973625    6.612794   -9.447608
Au  -12.675785    8.090145   -7.147765
Au   -8.588018    8.185732   -5.845931
Au  -12.667695    8.073893   -4.484488
Au   -9.972185    8.057926   -3.569827
Au  -11.902853    6.606932   -2.194827
Au   -9.996674    8.039817   -8.107916
Cr  -10.825367    6.618034   -5.829790
