11
File written by ORCA
Au   -2.026872   11.711807   -2.418685
Au   -3.348850   13.173104   -4.432895
Au   -1.006979   14.448965   -4.332146
Au    1.239336   13.330017   -5.292327
Au   -0.666116    9.166201   -4.502289
Au   -0.220578   11.941758   -7.351065
Au   -5.203171   11.549502   -5.617165
Au   -3.146855   10.147477   -4.476467
Au   -2.807130   11.738356   -6.924432
Au    1.413946   10.608795   -5.400932
Cr   -0.963663   11.811868   -4.809378
