15
Coordinates from ORCA-job pbe
  Au  7.69803580563605     10.39599768770162      8.65132927208043
  Au  6.56894950857990     10.02610670968561      6.09040271415895
  Au  6.89973552326098      8.25567321025378     10.30862004915169
  Au  5.05179855012766      9.50286500872565      8.48480419457639
  Au  9.24378203667974      9.52403643837066      6.51008785466100
  Au  9.46265754982412      8.34506387304167      9.30427126746800
  Au  4.84277389563439      7.74063001154563      6.25109954140836
  Au  7.49504183342195      5.59934930413640      9.11415084919008
  Au  5.04497000922397      6.66761257695531      8.80192951557900
  Au  10.25514472646903      5.65362301926821      8.95951417511733
  Au  8.75440244260311      5.89469460920659      6.67378530891939
  Au  9.91981225628661      7.44092197539713      4.72627221210363
  Au  11.15724215275726      7.67383116662265      7.23427452864139
  Au  7.16504420755071      7.35069541767952      4.94823452063716
  Fe  7.22909409194434      7.90636791140952      7.64162538630706
