17
Coordinates from ORCA-job pbe
  Au  10.12079947203041      7.44656759351485      6.50626452918686
  Au  6.77805293463158     10.75936370290117      6.63133131824624
  Au  7.12970127907081      7.64577667680530     10.18864854693056
  Au  7.64550667095802     10.16178363902139      9.20552810870867
  Au  9.60438971675087      8.20920774270375      9.13338981799403
  Au  7.70592165395216      8.39529039616804      5.46938868443003
  Au  5.14702925032677      9.27370838721012      8.41606167205336
  Au  6.44133647443398      5.00026868200348      9.68712274793010
  Au  4.47615634215948      6.93707887608771      9.75864907728291
  Au  3.71674753914047      7.07361770052880      7.12120664137901
  Au  5.60766745031822      6.28796615079038      5.17420360721845
  Au  9.45311487601612     10.09722604913169      7.01923473347070
  Au  5.00468043898622      8.96413214219855      5.56523958468418
  Au  8.30100852765441      5.69887306517606      5.43721249664955
  Au  6.48514809531651      4.33405402611737      7.01961649955763
  Au  8.71857908732918      5.73399920637734      8.27858370524629
  Fe  6.35575034092454      6.94905988326037      7.65877560903263
