11
Coordinates from ORCA-job pbe
  Au  8.71105065893499      8.71910534742151      7.70952389468553
  Au  9.16636949005738      6.15727081288188     10.26661150827523
  Au  6.75819809200214      4.79967858903046      9.44342910116741
  Au  6.28629535651031      7.46714668529667      6.78094619366804
  Au  6.89739292959376      7.57459476842467      9.48960459474051
  Au  9.89181733281312      4.46560813778624      5.84918831427691
  Au  8.21288364420926      3.33249361105501      7.74530820497310
  Au  7.71276164035398      5.99394109646374      5.06469693304163
  Au  10.61569370970857      4.73384774903299      8.52634136788130
  Au  10.14789183385862      7.23507081460742      6.01079520015360
  Cr  8.40005910195780      6.03041449799931      7.67832208713668
