17
Coordinates from ORCA-job pbe
  Au  6.92541256721270      8.93443089447725      5.36448903037706
  Au  5.47797365738845      5.92417705845654      9.67381322303214
  Au  10.28572740978036      8.15825982323813      8.62252213018501
  Au  8.09420327618333      6.83114829091390      9.53849599246614
  Au  7.15978464188079      4.87645930133659      7.69382575487378
  Au  11.92107198012830      9.85909565177816      7.22843967020853
  Au  9.42332248333720      9.56539070142946      6.16820859611665
  Au  8.83761762292554      6.88884967766490      6.64320914605201
  Au  6.64712303916017      6.00543392149340      5.17556505094565
  Au  4.43284704657298      7.64469921579117      5.32731876548868
  Au  7.24611330367052     10.43766862251127      7.82498986687084
  Au  4.70897326443575      9.69051661982199      7.20908065860404
  Au  3.63107068005297      7.19928570269380      8.03465758989331
  Au  9.81093331123652     11.09014326626737      8.57075033072360
  Au  8.32078578734381      9.50758764694316     10.23577895105729
  Au  5.67864204374837      8.76562694078054      9.71967136992767
  Cr  6.24328688494223      7.40559466440234      7.47625387317758
