13
Coordinates from ORCA-job pbe
  Au  10.19064407023712      4.85295049400434      9.16822916703928
  Au  9.63233229693567      5.03968643521607     11.85913397801158
  Au  7.41843375095421      5.17489176901360     10.26605596478586
  Au  7.39925721252441      5.72389345047097      5.60227752164796
  Au  6.16454583632719      5.12881254882520      7.90148093296547
  Au  10.17624449491623      5.15824375648616      6.57088749944755
  Au  9.58840059796642      8.95405416091194      8.34131715421381
  Au  9.42630025287715      7.41183138109075     10.52242483970136
  Au  6.76486559486237      7.87347943523467      9.60433132284036
  Au  6.74597943035384      8.18674651236076      6.88185121604199
  Au  9.59809437302530      5.97411438551785      4.00292745445422
  Au  9.40386595315452      7.96304832342803      5.86326914568472
  Cr  8.45418748586535      6.52943645743943      8.05948876316562
