15
File written by ORCA
Au   -5.428274   11.185156    2.050732
Au   -4.944577   11.121998   -0.665356
Au   -4.861198   15.847692    1.905034
Au   -5.247740   13.678108    0.225405
Au   -5.420615   12.189190    4.664818
Au   -4.938608   14.998059    4.667130
Au   -6.636955   13.709784    2.686517
Au   -2.568987   14.608552    0.639691
Au   -2.432682   15.614294    3.348052
Au   -2.731399   11.768759    0.810754
Au   -3.397364   11.153391    6.190915
Au   -2.533826   13.516662    5.154585
Au   -2.933355   10.943372    3.478386
Au   -1.190725   13.089794    2.704514
Cr   -3.913271   13.403432    2.695464
