15
File written by ORCA
Au   10.326664   -1.406525   -7.082449
Au   10.468332   -3.434407   -5.216248
Au   15.024588   -1.314209   -7.137532
Au   12.917931   -2.895945   -6.278597
Au   11.182124    0.781510   -8.606353
Au   14.024296    0.988551   -8.570626
Au   12.650192   -1.569360   -8.759822
Au   14.139236   -1.124032   -4.386028
Au   15.006740    1.212616   -5.853279
Au   11.295399   -1.012467   -4.243868
Au   10.315764    3.175865   -7.600430
Au   12.817894    2.721274   -6.632227
Au   10.309294    1.143224   -5.733465
Au   12.687747    1.386810   -4.144003
Cr   12.672652   -0.091083   -6.451883
