13
File written by ORCA
Au    4.534692   -8.435797   -6.646660
Au    2.709273   -9.815329   -5.176379
Au    3.076028   -9.890660   -2.553064
Au    4.377038   -9.653679   -0.151968
Au    5.509605   -8.127760   -2.085204
Au    6.955756   -7.317347   -7.166731
Au    6.383581   -7.400910   -4.508096
Au    7.624098   -9.656610   -3.207048
Au    5.698190  -11.255950   -1.953693
Au    6.478965  -12.008523   -4.426101
Au    4.890850  -11.182444   -6.558252
Au    7.277511   -9.844444   -6.071007
Fe    5.129558   -9.740083   -4.226218
