17
File written by ORCA
Au    8.421038   10.812018    1.775148
Au    6.099564   12.013979    2.884380
Au    9.436334    9.311980    4.913914
Au    8.643819   11.014152    6.993266
Au    8.509343   11.919709    4.355677
Au    8.474005    8.213473    7.310364
Au    6.441895    9.928726    8.289014
Au    6.192592   11.251205    5.747459
Au    8.959425    8.161443    2.470094
Au    5.810121    7.467639    6.998221
Au    7.545212    7.216625    4.846800
Au    4.125621    9.715370    6.771460
Au    4.819751    8.152943    4.494862
Au    4.937470    9.636962    1.915161
Au    3.906695   10.838041    4.235404
Au    6.307927    7.286410    2.322872
Fe    6.990504    9.632199    3.613431
