15
Coordinates from ORCA-job pbe
  Au  9.51320186671892      6.50747757371322      7.89948642519272
  Au  7.72848906985880      7.97550512079213      9.57416478088969
  Au  10.68812499253931      8.27422043914494      5.98757026026086
  Au  7.87721275538414     10.80266456741963      8.85398002992127
  Au  5.66434119292451      9.12635364164047      8.11639213611963
  Au  6.60137706784877      6.52754181602846      7.39082165758487
  Au  10.18351587459695      9.09195130834244      8.90862242466148
  Au  9.64279414889299     11.14845250450546      6.61951359992169
  Au  8.47686469426801      6.76263603932809      5.25357318484148
  Au  4.42006287538187     10.30367851296515      5.95493071412728
  Au  6.97472577399005     11.16499402502760      6.15182272821260
  Au  12.10011913444868     10.25059293840792      7.29565112385281
  Au  6.16903850595501      8.30623408436211      5.19782804288120
  Au  8.63863198675686      9.56574696225035      4.44564761400170
  Cr  8.18246606043507      8.80393511607198      7.02459877753072
