11
Coordinates from ORCA-job pbe
  Au  6.77831647127592      7.74714527507574      7.91666785592388
  Au  8.91651985122323      8.92619154005719      9.22663473270996
  Au  5.46144757509875      7.43186417741718     10.36973027559389
  Au  9.34975628428990      6.95287660986206      7.36815069339369
  Au  10.82429962520086      4.61680816611882      7.08376487133273
  Au  8.32315370780759      4.36771069832491      8.15775162168692
  Au  10.66659443030228      5.67188889054396      9.60133229539157
  Au  5.91178976858104      5.13416663083304      8.89267490964941
  Au  10.06813525025102      7.44087341794587     11.46029978610069
  Au  7.56843010419972      8.61115173788026     11.66220734738195
  Cr  8.02885430176944      6.45104346594082      9.96725356083505
