15
Coordinates from ORCA-job pbe
  Au  7.59236861978081      5.02185103834681      8.22208738336745
  Au  8.52335824695443      7.98974492411741      4.76973993087518
  Au  9.37682147186331      5.62040060528208      6.20292629941231
  Au  6.62507860286786      5.97374906115306      5.74505013820177
  Au  6.11518224157486      8.86252246205860      5.75173271003341
  Au  5.63061989943899      6.90957489414933      8.93929554934358
  Au  4.20161348187481      6.93325082696421      6.53712233833388
  Au  4.42203977208602      9.25725187196013      8.04863401521607
  Au  8.62767019905670     10.10976437073219      6.71638121667586
  Au  10.58219354344703      8.03457437093533      6.70857080780252
  Au  9.74192983003366      9.07634342311075      9.11145772462512
  Au  8.12526177421925      7.01920767532124     10.14944071763141
  Au  6.96189327016746      9.45721933417971      9.27933986600394
  Au  6.19501133550210     11.24990900932628      7.29212334725623
  Mn  7.93242164113224      7.61906841236244      7.49139463522082
