15
File written by ORCA
Au    4.091747    0.340167   13.257249
Au    6.148508   -1.069007   14.491813
Au    6.752202    0.365345   12.216260
Au    7.863958   -1.827562   11.004750
Au    6.131232   -0.197490    9.534485
Au    6.726143   -3.362842   13.027896
Au    6.087985   -3.900144   10.327412
Au    3.510641   -3.964812   11.514633
Au    4.005881   -2.839705   13.985276
Au    3.936097   -2.734284    9.147717
Au    3.516698    0.336961   10.613099
Au    2.217763   -1.598588   12.168621
Au    1.575179   -1.360132    9.474175
Au    3.900184   -0.254682    7.960800
Cr    5.079586   -1.698501   11.679542
