13
File written by ORCA
Au   15.425027    4.782478   -1.069752
Au   14.207132    7.270007   -0.951029
Au   12.946895    4.855812    0.018105
Au   11.999426    7.694978   -2.508424
Au   10.609516    6.168377   -0.617737
Au   10.651476    3.463215   -0.624722
Au   14.169769    3.495304   -3.515776
Au   14.204618    6.133661   -3.487966
Au    9.775018    6.243200   -3.308859
Au   14.079047    2.372351   -0.972102
Au   11.921971    1.952595   -2.596133
Au    9.736412    3.508978   -3.304264
Mn   12.013005    4.832027   -2.609280
