11
Coordinates from ORCA-job pbe
  Au  7.43456136729149      6.60263975415466      6.47189599610448
  Au  8.10129967276183      9.13906985248335      6.87685619477825
  Au  6.04634204921829      4.23887093458588      6.54452466180907
  Au  6.40609643577876      5.49756742577327      8.95132396927582
  Au  4.48250914582273      6.48501124728099      6.89776815851272
  Au  5.93055736934218     10.68883300349804      7.73582713000355
  Au  6.46551292170846      7.38044322555971     10.81910944628550
  Au  7.74846113704272      9.61233819890103      9.64655144710505
  Au  4.93474382904528      9.61767011007245     10.11678350391744
  Au  3.69178077010169      8.92291126562461      7.64255778269210
  Fe  6.10406867188644      8.04862517206599      8.26312699951609
