13
File written by ORCA
Au   12.180447    4.001299   -0.188202
Au    9.611257    4.927216   -0.446697
Au   11.335872    6.587150    1.135684
Au   15.794113    6.442387    1.225235
Au   14.906757    4.055118   -0.191865
Au   13.464034    5.234147    2.112956
Au   14.923320    8.635206   -0.258950
Au   15.967517    6.240361   -1.557709
Au   13.778593    7.465482   -2.730423
Au   12.220414    8.703997   -0.609883
Au    9.634392    7.790766   -0.683564
Au   11.538028    6.121262   -2.031992
Fe   13.569844    6.349070   -0.311745
