11
File written by ORCA
Au    8.437110    6.389543   -6.958588
Au   10.887491    6.524699   -8.022602
Au   13.616760    6.670863   -8.212051
Au   12.486727    8.190337   -6.225738
Au   12.649932    5.060061   -6.210042
Au    8.392356    4.953459   -4.507270
Au   11.078154    4.268227   -4.234629
Au    9.966808    6.503143   -2.808611
Au   10.841872    8.823352   -4.251830
Au    8.243253    7.850790   -4.527484
Fe   10.530952    6.519177   -5.416776
