11
File written by ORCA
Au    9.326665   -5.199729  -12.087858
Au   10.617570   -5.191772   -9.600427
Au    9.358848   -2.429039  -12.088245
Au   10.651253   -2.451917   -9.605024
Au    8.239355   -1.100688   -9.736911
Au    4.353262   -3.757600  -12.088969
Au    7.058077   -3.787357  -12.716452
Au    5.999317   -2.254620  -10.505439
Au    5.964765   -5.297958  -10.505932
Au    8.181105   -6.499932   -9.739864
Cr    8.248691   -3.800636  -10.002789
