11
Coordinates from ORCA-job pbe
  Au  5.37543849608647      3.93881965072376      6.30210447392806
  Au  8.22818525337686      6.93640618312955      7.53321205302094
  Au  4.63103797959004      5.17703239890745      4.02837437731477
  Au  6.80464950422037      6.23835470101617      5.44440995263472
  Au  3.95791244536780      6.63582485228596      6.25494791933123
  Au  6.33007459673785      3.48432362432469      8.70948069518357
  Au  4.28534044112598      8.16773655989783      8.34451577275339
  Au  7.86860914791804      5.49150336448779      9.96708960195430
  Au  6.67819513317733      7.84707716501270      9.91584028042722
  Au  5.00585958560131      9.82867623759251     10.33186095224295
  Mn  5.83626727679782      6.00345728262150      8.05527593120862
