13
Coordinates from ORCA-job pbe
  Au  6.54033004098723      7.32672100267576      4.14508588474942
  Au  9.08740927653728      7.21184074242945      3.17730568949001
  Au  8.93427768265860      6.85971868764249      5.89022592787937
  Au  9.29239444270543      9.34848640429785      7.13029810583641
  Au  8.50580929621417      9.57083497636757      4.44542851746999
  Au  7.19813111952534     11.16875726632386      6.18807446967657
  Au  5.19562131897788      7.68175377688128      8.53655821156598
  Au  7.82933024464742      7.11105960001611      8.34108942963076
  Au  6.94245846004741      9.86278534705817      8.80420146903032
  Au  4.77728370997221     10.40056079497225      7.10610114021026
  Au  2.77383213503596      8.61374727580689      7.65524591494743
  Au  4.42636548325689      7.80293745914504      5.64200688568529
  Fe  6.79466728943411      8.58214318638287      6.42317123382835
