17
File written by ORCA
Au   10.239290    9.080110   -1.103230
Au   11.183379    6.416212   -0.766670
Au    7.451862   12.202324    1.360452
Au   10.129821    9.047147    3.906014
Au    8.253425    9.527109    1.363476
Au    8.494640    7.118010    2.749527
Au    8.554195    7.138029   -0.045705
Au   11.086022    6.386290    3.578275
Au   12.213078   10.923804   -0.770480
Au    9.676127   11.568089   -0.052473
Au    9.611714   11.548434    2.860554
Au   11.866834   12.600415    1.462778
Au   12.945399    8.265805    2.910431
Au   13.774162   10.486333    1.496102
Au   13.012883    8.283800    0.011401
Au   12.111573   10.899910    3.693701
Cr   10.704517    8.011059    1.405215
