13
Coordinates from ORCA-job pbe
  Au  7.68457343357858      9.21140384072113     11.37419069898300
  Au  5.64905406012826      7.64125382300205     10.39275471929736
  Au  7.45406254860504     10.22680172635838      6.63536475658523
  Au  5.30351228759152      9.33961076577955      8.07918201629391
  Au  7.17757786445146     10.96264537371223      9.23176599497252
  Au  9.83803726314619      9.89224512137582      9.73215926923138
  Au  9.98605894893713      9.20776833806123      7.10992086509882
  Au  4.49095628804670      6.78166075446185      7.92604868931029
  Au  7.10958193026426      5.81974855128336      8.83622530356359
  Au  8.49248956173622      6.64911293384583      6.76609404627962
  Au  8.49920661631132      8.52466630864269      4.75798191448381
  Au  6.03540610817242      7.64351944040549      5.84946736097314
  Mn  7.85277275903068      8.37816671235019      8.78879632492716
