11
Coordinates from ORCA-job pbe
  Au  8.27123499951317      3.30882255417855      9.11881758062478
  Au  6.72941341396581      6.48267099105946      7.35340676486654
  Au  8.86150229762078      8.08669902272871      7.99770251264343
  Au  9.27665708287968      5.40883724729592      7.56233945657040
  Au  5.75019368196274      4.36058177023479      8.90148796140933
  Au  5.27814843993968      6.91727632447576      9.84573342773333
  Au  10.03021056327772      7.47050967240456     10.56705077300062
  Au  9.50403526594596     10.05644970064546      9.84615059708335
  Au  7.22415683203361      8.62794035667551     10.32212049656228
  Au  10.25528511081095      4.86328875564723     10.26301129915405
  Cr  7.82420091204968      5.97101385465388      9.80135185035159
