15
File written by ORCA
Au    0.247942  -13.651761   -3.712007
Au    0.194554  -11.504502   -5.392566
Au    0.158997   -9.573540   -1.567187
Au   -1.341598  -11.342915   -3.115172
Au    1.965918  -11.345405   -0.380407
Au    1.733427  -11.274812   -3.119973
Au    2.523653  -13.739812   -2.019533
Au   -1.897120  -13.932176    0.818563
Au   -1.561867  -11.421841   -0.373985
Au    0.288962  -15.659791    0.837609
Au   -2.013139  -13.842961   -2.010435
Au    2.408927  -13.846941    0.808543
Au    0.302980  -15.699877   -1.896890
Au    0.226667  -12.274507    1.674998
Fe    0.245986  -13.369902   -0.721629
