13
Coordinates from ORCA-job pbe
  Au  6.53251200863507      6.40538121463110      6.89027874119362
  Au  11.60787826680022      8.61089299999847      9.98076051373086
  Au  10.43378631853438      9.39955469280451      7.51490812298041
  Au  9.33451860148287      5.71569214800124      6.39410327249616
  Au  8.29896785467555      8.41169164369306      6.12215399347626
  Au  11.49390585844226      6.65533203507860      8.01944452087949
  Au  9.69602148150392      6.80871547613197     10.85869511037202
  Au  8.92700535132426      9.53704938559699      9.89346564224259
  Au  7.47794267595145      3.92005513902440      7.62099657821755
  Au  9.76214670487495      4.69389565893501      9.02089733252890
  Au  6.70878372800142      8.56315380458767      8.63130389978219
  Au  7.26037995863992      5.90241397580586      9.67815740954736
  Fe  9.01905675113452      7.34546973571106      8.40726762255176
