15
File written by ORCA
Au  -10.913751   -4.983048    7.163061
Au   -9.521166   -5.830400    9.505614
Au  -11.598030   -7.266062    5.589257
Au   -9.451779   -8.750448    9.551677
Au   -7.162057   -7.152913    8.876469
Au   -7.962055   -4.907275    7.303120
Au  -11.743794   -7.266657    8.660839
Au  -10.666372   -9.792675    7.170876
Au   -9.307572   -5.826451    4.961058
Au   -5.444128   -8.744658    7.419998
Au   -7.961446   -9.721882    7.297206
Au  -13.229147   -8.944583    7.049694
Au   -7.016979   -7.149386    5.806571
Au   -9.231738   -8.746812    4.915441
Cr   -9.378041   -7.316852    7.233466
