11
Coordinates from ORCA-job pbe
  Au  10.87760148932687      6.54710524274683      8.62404000573681
  Au  10.11112480941758      4.07708361645430      7.47787785956105
  Au  7.49739895729290      3.51008337740562      8.51834566235607
  Au  7.68844282783097      7.03962655003261      5.54707658299182
  Au  9.31002731701756      8.46264883031015      7.37638304799967
  Au  7.83666320058141      4.26010697836854      5.85331594709162
  Au  9.11353480582019      5.09093229143480     10.28833016631499
  Au  6.41595605107564      5.70479697969703      9.85822760800293
  Au  5.77193486537641      5.62007134014941      7.14462822464661
  Au  6.68785698496061      8.05382747351180      8.35641790034707
  Cr  8.36928249129979      6.03919766988887      7.91678119495125
