17
Coordinates from ORCA-job pbe
  Au  6.93642163632426      5.44148891102303      8.10238892108033
  Au  9.41375904424369      5.40846516724271      9.23819157291463
  Au  5.54513940237187      7.59615006255477      7.09330494782081
  Au  8.37074517051153      9.69936128950101     10.65165277702007
  Au  10.24153173172877      7.72188485076213     10.54285873337935
  Au  6.01483373756052      9.32135497645343      9.18800291732844
  Au  7.38174050481709      7.10614794483613     10.26079235153644
  Au  10.31203009194772      9.66105791193096      8.44640153343976
  Au  11.33575430143182      7.03770972893481      8.08576901683792
  Au  9.33135595874599      5.98291509017762      6.43239606458630
  Au  7.97145684238637     11.32039953547523      8.48443984663569
  Au  6.79791668646122      5.80235590054227      5.33182903131472
  Au  7.95884222899016      8.27425115557698      5.04050476110796
  Au  6.38464979071273     10.14571484524707      6.47864192992696
  Au  10.66518924904639      8.39056480154228      5.82400036682875
  Au  9.11361299468168     10.62269656056281      6.06882457185414
  Cr  8.16001562803735      8.14807445763608      7.80888160638698
