13
Coordinates from ORCA-job pbe
  Au  7.95486890134011      8.93331322555474     10.80290274626581
  Au  9.54856871823457      6.90885788071527      9.56074585283302
  Au  6.79905279304146     11.21112041880700      6.71500075685832
  Au  8.78146468614766     10.52847937777407      8.65795326655743
  Au  6.87005165081543      6.39739277418111     10.03634616295205
  Au  5.95044766623781      9.99114847721318      9.16157465876212
  Au  5.39249210619542      8.81110945739570      6.70898633432378
  Au  6.02499482394911      6.13385903494522      7.48531425185232
  Au  8.87425754317401      9.46671599897310      6.09041377123894
  Au  6.64518041628520      9.76800536125394      4.32739918495233
  Au  9.52504529656411      6.79296541411184      6.86291130741612
  Au  7.28198950694637      7.23496494022410      5.21869161190041
  Cr  7.62605063106866      8.15659045885062      8.12879808408723
