11
Coordinates from ORCA-job pbe
  Au  6.43203111314632     10.51727115489210      6.93187664410489
  Au  8.70819685998887      9.37614087550829      7.78868307334922
  Au  7.44146848566577      5.24273752952880      9.32594145146692
  Au  9.96284611226554      5.61372159720525      9.92914667854843
  Au  6.52874870277632      5.30490260310318      6.66779108234818
  Au  6.44983677420013      7.89247212390180      6.89063959334631
  Au  12.60530884004069      6.28962731669964      9.58572111508302
  Au  10.82561120538088      8.15886786284665      8.68053807587603
  Au  11.21516559474543      5.56200880697650      7.33830892954298
  Au  9.16529961384457      5.14955773347930      5.75461819584575
  Fe  8.77033938794550      6.75619352585817      7.73220495048764
