15
File written by ORCA
Au    8.929339    3.130400    9.601264
Au    6.027442    3.130942    9.617409
Au    5.019673    5.660773    9.605525
Au    7.488307    4.783335   11.326399
Au    6.006416    7.043024   11.920935
Au    8.945294    7.059462   11.921475
Au    9.929172    5.666188    9.611125
Au    9.816080    8.479143    9.606253
Au    7.467022    9.323794   11.034957
Au    6.004928    7.053587    7.295028
Au    7.469999    9.326026    8.185921
Au    8.940388    7.050949    7.296266
Au    7.470290    4.783518    7.891959
Au    5.124377    8.471055    9.610558
Cr    7.473236    6.958314    9.609094
