15
File written by ORCA
Au    4.334963    8.783130    9.261830
Au    4.355701    8.898155    6.362242
Au    6.867269    8.580975    5.358645
Au    6.213374   10.318793    7.884088
Au    8.541573   10.654661    6.427260
Au    8.539670   10.552617    9.364410
Au    6.842875    8.418121   10.265387
Au    9.630381    8.039298   10.156616
Au   10.673698    9.420978    7.859845
Au    7.931280    6.072035    6.265371
Au   10.293569    6.599039    7.764025
Au    7.910589    5.973361    9.199101
Au    5.752786    6.918093    7.746983
Au    9.652102    8.204882    5.467877
Cr    8.138279    8.326416    7.812892
