11
Coordinates from ORCA-job pbe
  Au  7.44854804370095      5.57414976874642      8.59540684879500
  Au  9.82685252051365      5.71280537169772      9.81163171073853
  Au  12.51684692761796      6.06720740702995     10.19175522704750
  Au  11.31912515307386      7.85137218070851      8.48487660966788
  Au  11.80226945550007      4.81941151742077      7.85298136680131
  Au  7.65086142236838      4.67350544653417      5.90817545601845
  Au  10.40154146703216      4.30857261410981      5.66740442315094
  Au  9.12636494244689      6.67666482556821      4.65274468430346
  Au  9.69991162768903      8.72190044454663      6.58148654799519
  Au  7.20538406225115      7.47885197607641      6.49872579502746
  Fe  9.57919497780581      6.20915675756142      7.24068303045422
