17
Coordinates from ORCA-job pbe
  Au  8.75724531080712      7.21593302997396      9.70513187671902
  Au  8.59939493817593      5.25091568511191      7.68304214383811
  Au  6.20354491268938      8.36646809647848     10.06562354683773
  Au  4.42437151313568      7.06968338193863      8.29738737890681
  Au  5.31049074881758      9.65829443078153      7.70965169375860
  Au  5.19518951964673      7.62296721790698      5.62001105708366
  Au  5.87740476231668      5.15530563230755      6.79575937549153
  Au  9.69820525868554     10.47212330063728      6.41509190589535
  Au  7.16061614408156     11.49552221309654      6.79463398495978
  Au  8.03086100482086     10.88285498533552      4.19104759969448
  Au  5.38398921776622     10.34702903072254      4.99812338041158
  Au  9.71698759728561      7.75797043818521      7.08340987777394
  Au  6.85556858279287      8.43404901895527      3.54111600975473
  Au  7.82807776686540      6.50220300213581      5.27502739415039
  Au  9.53601172557215      8.51641409067590      4.41074762870314
  Au  8.21494737580280      9.76348337574229      8.66880736950785
  Fe  7.00341607073786      7.40586253001443      7.73370012651321
