11
File written by ORCA
Au   -2.508190   -6.661956   -9.143024
Au    1.941874   -8.120182   -8.380950
Au   -1.216761   -8.275714  -10.963485
Au    1.697814   -8.174858  -11.020665
Au    0.206632   -7.816201  -13.270573
Au   -0.642917   -5.556821  -11.993480
Au   -0.835300   -8.609472   -8.243029
Au   -1.261598   -4.212258   -9.785880
Au   -0.832759   -5.319025   -7.294116
Au    0.493404   -7.432669   -6.146966
Mn    0.234825   -6.423881   -9.554770
