11
File written by ORCA
Au    3.246612   -8.974916   -6.570993
Au    6.794617   -9.059259   -3.422216
Au    5.021544  -11.079671   -6.495455
Au    6.361681  -11.619038   -3.961426
Au    5.012655  -13.561181   -5.311444
Au    2.826107  -12.026571   -4.744455
Au    5.867064   -8.486778   -6.026642
Au    1.666525   -9.669910   -4.337480
Au    3.168771   -7.356317   -4.246542
Au    5.795068   -6.576744   -4.054235
Mn    4.336003   -9.826159   -4.154599
