13
File written by ORCA
Au    9.902503   11.349463   -5.221784
Au    9.985276   11.123088   -2.237519
Au    5.642650    9.268635   -2.732674
Au    4.780262   11.904497   -1.206030
Au    8.001270    9.926569   -3.818001
Au    7.419294   11.384538   -1.273087
Au    3.843787   13.464019   -3.433830
Au    6.293829   14.316505   -4.432485
Au    4.628484   12.079970   -5.871094
Au    8.447148   13.032350   -3.508539
Au    7.299009   11.788180   -5.999945
Au    3.473568   10.763577   -3.570092
Cr    5.994297   11.791087   -3.585198
