17
Coordinates from ORCA-job pbe
  Au  6.50324458486481      9.03052111171225      5.87851953297110
  Au  10.34559677743907      7.71171035931268      8.32002710334664
  Au  11.83177396245031      9.89255180316615      7.33675823064980
  Au  9.24529606269601      9.44025194968644      6.35525321344713
  Au  9.12931930515628      6.70953351417546      6.06293721284457
  Au  6.51700784380368      6.31376975850600      5.26083830719185
  Au  7.36418903932219     11.05023096366146      7.58783845993682
  Au  9.79651594718102     10.52035554719065      9.01462775164734
  Au  9.24149952202094      8.33572876255632     10.77854755920244
  Au  6.49343629664837      7.72149672105934     10.59231233692813
  Au  7.39472880210597     10.35598356827100     10.27639865481843
  Au  5.35031492020007      9.37537610479818      8.62793383213968
  Au  5.80525629514488      5.51363237589887      9.12259833988555
  Au  7.67915544033989      4.69134964676936      7.26901587012344
  Au  8.63916913913029      5.88300261613031      9.60450094526000
  Au  4.71038127665803      7.13935758354632      7.17956330909231
  Cr  7.39144531483777      7.58380014355872      7.94917396051440
