15
Coordinates from ORCA-job pbe
  Au  9.02893496134480     10.59595674690507      5.98317772942390
  Au  11.49513192599300      7.99715105946284      6.95963367340759
  Au  6.15175730758897     10.62753457383269      5.86138054437159
  Au  10.16264934942936      8.59623092180680      4.50744811867637
  Au  7.35498306748114      8.52382410487720      4.54680584205562
  Au  7.43827261119309     10.57720265568500      8.31255874194707
  Au  6.12972789276216      8.10407662930901      7.08830639174646
  Au  7.59463055727268      5.86629047059935      7.82577871259174
  Au  7.60052290733965      8.12046110704846      9.52594902795282
  Au  10.12189407288121      7.02082672731526      9.24955064180747
  Au  10.20075579191817      5.23247235157462      7.16641731906792
  Au  10.06922367992772      9.76016531557348      8.56130880041408
  Au  8.51882031748339      6.11135708308776      5.07994862056968
  Au  11.39472734334556      6.15448372693676      4.84711232343737
  Cr  8.81012383403863      8.07057955598523      6.91086097253000
