11
File written by ORCA
Au   -2.344208   -9.223791    8.707104
Au   -6.336251   -7.197922    7.324120
Au   -3.601575   -7.313213    7.188736
Au   -3.654069   -9.894243    6.141403
Au   -7.481143   -9.036294    8.992030
Au   -6.468933   -9.777817    6.275639
Au   -5.084917  -11.967814    7.204289
Au   -5.036834  -13.653972    9.404538
Au   -6.515320  -11.380588    9.640102
Au   -3.405811  -11.479898    9.500357
Fe   -4.951508   -9.439129    8.419968
