11
File written by ORCA
Au    0.612518    9.750250    8.422870
Au    4.814671    8.943749    6.513769
Au    2.148211    8.325717    6.648306
Au    2.355618    7.531800    9.310647
Au    5.615405   10.943688    8.196440
Au    5.101161    8.163134    9.174848
Au    3.543851    9.011099   11.279537
Au    3.077132   11.303336   12.767609
Au    4.518065   11.605836   10.478091
Au    1.483970   10.914258   10.598170
Fe    3.225770    9.959797    8.654901
