13
Coordinates from ORCA-job pbe
  Au  7.53141842911367      9.62914242011473     11.37910563200547
  Au  5.37850939732713      8.20457035843768     10.40607147884809
  Au  7.41105669451596     10.81546448832769      8.83876649622784
  Au  9.86529316680427      9.44914906850600      9.93320503309762
  Au  7.89835301925189      5.41144038756720      8.74346832332847
  Au  7.76168288579923      6.73144836509207      6.39707470731669
  Au  7.53381164145763      9.62011050949102      6.36845049894850
  Au  10.02488120226796      8.65842522150887      7.42880760159880
  Au  9.35457429794056      8.23217064153670      4.81190367296754
  Au  5.32816983739872      7.75984986829189      5.56512330737024
  Au  5.25887535556175      9.41100013019892      7.88156756079574
  Au  5.49605742229348      6.66969790611860      8.13309360772658
  Mn  7.73304874026745      8.13787391480841      8.96949171976815
