11
File written by ORCA
Au   -0.637735   12.036379    2.105276
Au   -1.351805   10.439059    4.328245
Au    2.915067   10.539096    4.338475
Au    2.135054   12.096349    2.110784
Au    0.792927    9.835352    6.025261
Au    2.846437   13.700542    4.329244
Au    2.268112   12.115136    6.649957
Au   -0.790114   12.043833    6.644062
Au   -1.433270   13.599214    4.322518
Au    0.688528   14.320834    6.001927
Cr    0.744419   12.072129    4.373534
