11
File written by ORCA
Au   12.054743   -0.305597   -2.074389
Au   10.483390   -1.062334   -4.301746
Au   10.466084    3.205679   -4.310131
Au   12.038458    2.467795   -2.078712
Au    9.825305    1.065737   -5.999520
Au   13.628188    3.224001   -4.292753
Au   12.065263    2.603329   -6.617771
Au   12.078067   -0.455704   -6.613197
Au   13.644565   -1.056876   -4.287880
Au   14.311887    1.084705   -5.964629
Cr   12.058311    1.078021   -4.342033
