13
File written by ORCA
Au    1.411963   -8.803969   12.871211
Au    1.419085   -9.480699   15.550075
Au    3.756110   -7.234039   12.121806
Au    1.429729   -7.104255   10.615947
Au   -0.181873   -7.343157   14.995921
Au   -0.885940   -7.157325   12.153365
Au    2.847552   -4.645216   11.269010
Au    1.497166   -5.096570   15.535001
Au   -0.761004   -4.882730   13.935990
Au    0.086449   -4.611976   11.274183
Au    3.745987   -4.969436   13.909107
Au    3.089187   -7.404152   14.975841
Fe    1.460966   -6.134258   13.093383
