13
File written by ORCA
Au   -4.595255   14.640986    2.873731
Au   -3.762726   12.361339    4.015539
Au   -2.128425   10.624347    2.430640
Au   -2.123423   10.622747    5.352123
Au   -1.949954   13.202067    6.238676
Au   -0.490333   12.363697    3.769512
Au   -2.069188   15.925747    6.194377
Au   -0.739335   16.924394    3.782129
Au   -3.520767   16.921907    4.005272
Au   -2.184795   15.928126    1.591657
Au    0.342493   14.645108    4.907666
Au   -2.301605   13.204353    1.546351
Mn   -2.128641   14.559538    3.893870
