13
Coordinates from ORCA-job pbe
  Au  6.51332247007956      8.84233229103589      3.91075069568904
  Au  8.23634395802037      6.74974513867889      4.13271333852074
  Au  7.56302635949412      4.79871652469129      5.79466854167065
  Au  6.23048205510530      3.52049488915019      7.82063137055057
  Au  4.80819009956225      5.59423422298885      6.80809485883466
  Au  4.52851070014334     10.50924540133522      4.72615165835705
  Au  4.29673893193750      8.00676816865599      5.76855202141671
  Au  5.36212913605629      7.84876147351858      8.44432708266628
  Au  7.36723932328697      5.90081100630657      8.59574952084704
  Au  8.17599111200935      8.44881662272824      8.21843339932215
  Au  8.67634104658617      9.24001093351960      5.59655581504248
  Au  6.30292308984407     10.03550370124939      6.80398347596799
  Fe  6.82766980787435      7.30742270614080      6.24715900111360
