17
File written by ORCA
Au    8.703818   12.131156    0.165025
Au    8.594543    9.309325    0.145415
Au    6.070118   13.149528    0.205245
Au    4.301705   10.948735    0.150529
Au    4.688168   12.348160    2.542976
Au    4.622798    9.429601    2.529133
Au    5.829262    8.561816    0.135694
Au    8.689218   12.061422    4.888103
Au    6.093654   13.005022    4.829626
Au    6.704075   10.727075    6.362497
Au    4.300868   10.887461    4.898502
Au    9.218869   10.647183    2.535865
Au    5.852151    8.533788    4.857808
Au    7.331386    8.444421    2.515132
Au    8.576535    9.258723    4.861956
Au    7.639928   13.156866    2.547067
Fe    6.701286   10.822304    1.294319
