17
File written by ORCA
Au    8.730290   12.112226    0.156999
Au    8.614854    9.290628    0.139221
Au    6.098821   13.136372    0.196607
Au    4.325605   10.939411    0.143351
Au    4.715171   12.339539    2.534883
Au    4.643427    9.421122    2.522933
Au    5.847947    8.549153    0.130036
Au    8.715632   12.045586    4.880122
Au    6.122133   12.994813    4.821081
Au    6.727609   10.716533    6.355417
Au    4.324729   10.881217    4.891362
Au    9.242146   10.628669    2.528791
Au    5.870868    8.524137    4.852166
Au    7.349858    8.430021    2.509522
Au    8.596829    9.243123    4.855794
Au    7.668690   13.141801    2.538395
Fe    6.724927   10.808482    1.287178
