17
File written by ORCA
Au    1.706994    7.377011   11.953213
Au   -3.000644    7.328514   11.956985
Au   -0.692302   10.836182    9.756894
Au   -2.059511    9.945792   11.970672
Au    0.707078    9.975127   11.960397
Au   -0.636322    6.187803   11.003751
Au   -3.179383    8.958879    9.641249
Au    0.698267   10.230943    7.427926
Au   -2.061681   10.200213    7.422628
Au   -2.599506    7.518077    7.161211
Au   -0.632755    5.697326    8.055863
Au   -0.650256    7.895447   13.335070
Au   -2.957520    6.099399    9.509195
Au    1.683840    6.142572    9.506875
Au    1.296362    7.560308    7.160822
Au    1.850736    9.006853    9.637359
Fe   -0.658347    8.242859    8.886152
