13
Coordinates from ORCA-job pbe
  Au  10.76795046230506     12.17586164272546      8.16433209951802
  Au  8.31201113707485      8.28440791289464     10.47940499422840
  Au  10.27673071552022      9.84409283364689      9.56649320613310
  Au  6.56840388324485      7.20882707974386      8.71358859456995
  Au  12.49125883626319      9.78747026429181      7.90599450624440
  Au  6.15026861709250      9.71546615216136      7.23842094630550
  Au  8.16111859723823     11.40604676655631      7.85612038959241
  Au  10.92521970846336      7.60313703578059      7.41982125102038
  Au  10.24919155753964     10.17752570408097      6.24591418764914
  Au  8.63791596127163      6.29010479829961      6.85343339786930
  Au  6.04814138492445      7.14359458142016      6.02255262813612
  Au  8.18010397663036      8.76675150149845      5.25701320733900
  Mn  8.55510306243153      8.75965851689972      7.85829991139420
