13
Coordinates from ORCA-job pbe
  Au  8.94490067659541      7.92790025885647      9.95529138680195
  Au  8.17726860177069      6.01978003876772      8.15783843270696
  Au  8.85551323447513      8.21078367791641      5.04215226249643
  Au  6.93990305398216      6.37692347167093      5.73658750349343
  Au  10.08234930692383      7.85729430165743      7.47057135239325
  Au  5.43803423773845      6.72091331120946      8.08417586801637
  Au  7.82876163402212      9.76886630521869     11.69504966743247
  Au  6.11856833111616      8.56002585837460      9.97038202596723
  Au  6.61776261972057     11.25798756528673      7.10288982773020
  Au  4.76210962897349      9.47727642773015      7.77417268944495
  Au  8.30878824127802     10.64841346352664      9.17368223330110
  Au  9.32397619486416     10.45706911215320      6.65946558534002
  Mn  7.36872457853923      8.60175099763088      7.37444306487498
