16
Coordinates from ORCA-job pbe
  Au  7.09517715072151      9.74594711513368      5.92114019856933
  Au  9.19028270947364     10.13351313372109      7.74989087882284
  Au  8.15155580161267      8.59855936481588     10.02036801688058
  Au  6.62322514726228     10.56657535106990      8.58424317943063
  Au  8.58572996152102      5.88014854267885      9.50765198998027
  Au  9.64597102870409      5.73938104390082      6.71759735415231
  Au  9.48548177214324      8.31839611441023      5.64114925829695
  Au  10.35927647451401      7.76093901903114      8.44870717156357
  Au  4.96429347763639      8.57462965774999      7.54373535196832
  Au  5.84024337941819      6.32849612125956      9.20038744922379
  Au  7.21715074246592      4.66812327619651      7.39580785399762
  Au  4.98411755202627      5.97606248545301      6.52621319523832
  Au  5.22956965570982      8.11939647481665      4.78076208108471
  Au  5.40191392338364      8.77692960432775     10.31441563350750
  Au  7.43778523824471      6.48239652500811      5.10699773841946
  Fe  7.62950523516238      7.60682037042662      7.56057119886344
