15
File written by ORCA
Au    2.607939   10.865833    4.322909
Au    4.927689   14.375124    2.128948
Au    6.426698   14.153430    4.417343
Au    2.583562   12.800486    2.188731
Au    4.929577   13.995071    6.746649
Au    2.503969   12.564285    6.467693
Au    3.427678   14.156325    4.416706
Au    7.271311   12.802999    2.186605
Au    7.352101   12.561649    6.468779
Au    4.926998   11.169277    6.019813
Au    6.318557   10.256038    1.754868
Au    4.929540    9.259082    4.019587
Au    7.249939   10.868345    4.322925
Au    3.542083   10.256598    1.753036
Fe    4.928077   11.995468    3.415500
