15
Coordinates from ORCA-job pbe
  Au  5.12736078986550     10.13890306222903      6.73000937359169
  Au  6.53428066414101     10.74042152464012      9.03158617622741
  Au  8.24466911000471      8.85306714293214     10.08757203867139
  Au  6.18259375031036      7.01296194276280     10.21295241129648
  Au  7.20449925030825      9.15257424471361      5.05797487201133
  Au  8.73078676233140      9.78175698881851      7.38139367477251
  Au  4.48688445241310      8.89083191290276      9.20653021746371
  Au  8.57949216784082      6.44432159201057      8.77872880737773
  Au  4.61320379049778      6.35846304521165      7.94969421015878
  Au  4.82509657387432      7.79892715148451      5.39288446327249
  Au  7.10314041020659      5.32869523641426      6.79042555128119
  Au  8.94223334131757      7.25824089566857      6.08060437863119
  Au  7.01514523386309      6.46028227123905      4.17448463912346
  Au  4.76573049242922      5.08084142152182      5.42555867815400
  Cr  6.70043701059591      8.11884172745018      7.70073106796627
