13
Coordinates from ORCA-job pbe
  Au  7.38471892570938      5.28187604216832      9.70914113399022
  Au  10.21737557078492      4.85076647455912     10.00084465746764
  Au  6.95837706924258      6.78190655491981      7.28803028693770
  Au  9.00936878453752      4.76281681681386      7.38818180371782
  Au  8.91285959182699      6.92417624416898     11.51477807729260
  Au  11.54175160166862      6.08363480553077      7.75957353183551
  Au  11.48188237277892      7.41973949439888     10.31051545674481
  Au  9.43095103767707      9.43877648461828     10.21001338062247
  Au  11.05531724110361      8.91981168518310      7.88909611991545
  Au  8.22269887424877      9.35078450680174      7.59729789609070
  Au  9.52709584588300      7.27723337874161      6.08311255532631
  Au  6.89854782528968      8.11806374580122      9.83848820248007
  Fe  9.22020576924901      7.10085535629421      8.79900821757869
