13
Coordinates from ORCA-job pbe
  Au  7.22188652962113      5.09349674288198      9.17605197797984
  Au  9.67251620972310      4.84352551627707     10.47651219160823
  Au  6.88446641822624      7.34237871966710      7.55606899520465
  Au  9.55286472264487      4.70987409984589      7.68946860947053
  Au  9.32134823191342      7.34644434886183     11.64354624337494
  Au  11.56600874887240      6.59824610178018      7.26266522805972
  Au  11.55551639863578      6.86188706314124     10.04185834161619
  Au  8.88820914382331      9.49051545023919      9.90849622284841
  Au  11.21790849320888      9.10876700112560      8.41923925440867
  Au  8.76721790499507      9.35862486167124      7.12109840498585
  Au  9.11936672648137      6.85442838849022      5.95614764745171
  Au  6.87436257593296      7.60201169385683     10.33642477733613
  Fe  9.21947840592112      7.10024160216122      8.80050342565472
