17
File written by ORCA
Au   10.814745    3.919397   -6.475646
Au   12.886290    3.489426   -8.350941
Au    9.129277    3.330159   -4.206871
Au   10.750083    1.567475   -8.165388
Au    8.490731    2.273775   -6.699836
Au    8.429336    0.637911   -4.307433
Au    8.978097   -0.464615   -6.800671
Au   10.741553    1.180496   -2.851718
Au   11.589005   -1.079052   -7.221291
Au   10.623777   -1.176484   -4.537573
Au   13.509636    0.828636   -7.828604
Au   13.552186    1.706164   -3.193962
Au   12.723041   -0.894982   -2.662992
Au   11.779302    3.754831   -3.797224
Au   13.432955    2.706384   -5.759604
Au   13.322574   -0.165503   -5.261128
Mn   10.920710    1.362378   -5.508490
