17
File written by ORCA
Au   -2.137716   11.275298    5.166944
Au   -6.356295   13.278770    4.358496
Au   -5.177575   15.797494    3.913233
Au   -3.532163   13.562677    4.308214
Au   -4.780663   11.575295    2.877381
Au   -3.215515    9.371629    3.441589
Au   -2.608005   13.392928    6.909556
Au   -5.028662   14.864769    6.454789
Au   -7.185891   13.061015    6.988535
Au   -6.101392   10.645379    7.964435
Au   -4.856899   13.095860    8.511272
Au   -3.298495   10.846878    7.901263
Au   -5.981209    8.536570    6.218928
Au   -6.040214    9.208186    3.541455
Au   -7.444729   10.862570    5.298300
Au   -3.231254    8.754660    6.133447
Cr   -4.779593   11.039556    5.533585
