16
Coordinates from ORCA-job pbe
  Au  9.39379219367897      8.59489903609149      5.66396600593818
  Au  6.68959413111799      8.36368023938917      5.26321118220090
  Au  9.87502957687643      9.91501624086284      8.24637077431721
  Au  10.42655337197916      7.12411342878426      7.72501129046183
  Au  7.62619405510086     10.55578299453350      6.72115188292197
  Au  5.35816291679478      9.07477718139715      7.62512422817255
  Au  7.96598674339761      5.91816411054091      6.44451467208479
  Au  5.10747369615370      6.52268368464877      6.44921762552496
  Au  4.13594671323667      6.90084601868449      9.07138512457369
  Au  6.14104217285277      5.03885725682610      8.51211972754819
  Au  4.83175618918851      9.33072006378538     10.31903378655582
  Au  7.35016903610556     10.18334729611757      9.52524339632543
  Au  8.67737873725219      5.63316072697210      9.24512612055415
  Au  9.30818342629757      8.13300683880435     10.28762890614708
  Au  6.65805710097131      7.23482735334070     10.28387104792103
  Fe  7.89011112899605      8.06349390922112      7.91062286875172
