13
Coordinates from ORCA-job pbe
  Au  6.70067893704710      9.10600002779439     11.05033428701568
  Au  6.48253500244720     10.90284317732496      9.11192156327481
  Au  6.82253628293090      6.28865288468830     11.09098941573276
  Au  9.13758618906170      7.59726968509785     10.14828866645267
  Au  9.72897356876784      8.89160649120471      7.90997744061167
  Au  5.42507390664522     11.77669018797249      6.67309900163484
  Au  7.30892611043527      5.70022513612924      8.37505021373419
  Au  8.05887196833277      7.15658362770678      6.28990885875775
  Au  9.58641522627409      9.19471509125782      5.13036343608018
  Au  4.86950392174724      7.20901228646589      9.27472827300212
  Au  4.80794996951929      9.17110895397366      7.49049508611336
  Au  7.43259955071622     10.05652526796279      6.42231620499434
  Cr  7.15162981607478      8.31628768242074      8.58346976259525
