15
File written by ORCA
Au   12.988957   -5.350184   -2.179774
Au   13.638214   -3.941535    0.137608
Au   10.116338   -5.359426   -2.165306
Au   11.547195   -3.032823   -1.547808
Au    9.470782   -3.953677    0.152792
Au   10.107926   -3.973607    2.897164
Au   11.551444   -2.293075    1.131058
Au   13.021162   -3.962723    2.884239
Au    9.474809   -6.748047    0.167571
Au   13.649899   -6.735796    0.150176
Au   11.560652   -7.669292   -1.521668
Au   13.031717   -6.689866    2.899198
Au   10.113703   -6.700376    2.912576
Au   11.570642   -8.383983    1.163360
Fe   11.561491   -5.344454    1.083546
