13
File written by ORCA
Au  -10.589750    0.960677   -8.330344
Au  -10.422706    1.457482  -10.929683
Au  -10.619550   -2.555664  -10.938704
Au   -9.080586   -0.632201   -6.558271
Au  -10.745991   -2.049748   -8.338430
Au   -7.722881   -2.689546  -10.937777
Au   -7.530312    1.307346  -10.932056
Au   -7.549699   -2.197115   -8.338365
Au   -9.196833   -3.179456  -13.267085
Au   -9.075696   -0.618076  -12.577939
Au   -7.417035    0.802080   -8.331042
Au   -8.950276    1.944939  -13.260444
Cr   -9.080894   -0.624265   -9.785856
