17
Coordinates from ORCA-job pbe
  Au  10.95757828156260      6.03197083115604      7.02169976245427
  Au  5.36103044037283      9.04642690995676     10.53073135452040
  Au  7.53337989670781      7.29461903379667     11.00178470629667
  Au  9.34154604984318      6.68026273177840      9.14031688890929
  Au  9.55521866745843      8.36276441133099      6.90718453442956
  Au  7.43302633473446      9.96978300747101      6.35182894696463
  Au  5.11360278207438      9.79667441610859      7.92548572530073
  Au  7.81267198688289      9.19402397036315      8.98009180446677
  Au  5.19415098406802      8.64008445852463      5.39310271199379
  Au  7.65636798821104      7.42127601536839      5.05609265116333
  Au  8.31216090264123      5.37353871629175      6.80947684093732
  Au  4.97271440144676      6.28842945678675     10.91785493845561
  Au  3.55198476070201      7.43697004695386      7.22462899531316
  Au  7.01872945865620      4.99738440851492      9.23704114703556
  Au  5.70974306022599      5.87461141155544      6.28255396061008
  Au  4.28773146871694      5.11341863968556      8.52978862137808
  Fe  5.92605307569503      7.31134977435691      8.56038614977059
