11
Coordinates from ORCA-job pbe
  Au  6.77269975044527      6.56409115405138      5.48925033384792
  Au  5.55035869859019      4.09844909917871      6.49908719872510
  Au  4.18159208211250      5.65152046758004      4.78152693693933
  Au  4.35740838487484      7.04972557230082      7.05453529232220
  Au  7.31370709764966      3.36191966079353      8.31895738937628
  Au  7.86009023370534      8.04367117426090      9.58187624011101
  Au  10.45413265925139      7.45399392711993      9.29736997577853
  Au  9.11238812659074      5.13165455108038      9.08656546229972
  Au  5.23733672992606      8.08799894462062      9.31399691347119
  Au  8.84537733748225      7.15358370508797      6.98133285984197
  Mn  6.67640352937158      6.02149916392552      8.13098866728666
