16
Coordinates from ORCA-job pbe
  Au  4.31030173338263      7.48962799827668      8.61080192690626
  Au  8.51381700221356     10.19737863073582      9.46536663802219
  Au  5.82872123685764      9.41702083305036      9.97985908701302
  Au  10.21265863066801      7.83953304740796      9.84972264811298
  Au  8.39500277481036      5.69880124898252      9.93741993934860
  Au  7.93509951283437      8.23875881826784     11.34113488686144
  Au  5.84004670133170      6.57541608386563     10.71195779498651
  Au  6.15038308805828      5.31416020070158      8.27324097898644
  Au  5.75690775637148      7.22435497485173      6.22840006466981
  Au  7.74530067305453      5.28833088493301      6.02407961577274
  Au  8.42133746528726      7.96758414645297      5.68990686465649
  Au  7.80660634414388     10.44004738870491      6.75255434046286
  Au  10.20418276102714      9.20151241575457      7.45431388833194
  Au  9.77409210771666      6.35501859954722      7.56327667164649
  Au  5.24421881250219      9.73579852327749      7.25079208314075
  Mn  7.47504453973967      7.86399717518905      8.37586898108080
