15
File written by ORCA
Au    8.892436   -5.828117   -5.434246
Au    9.599291   -6.957706   -7.848321
Au    7.603463   -8.657034   -9.024369
Au    7.562286   -8.090660   -6.220451
Au    5.951005   -6.020997   -5.430127
Au    5.397306   -7.236738   -7.846297
Au    5.773015   -4.230609   -7.573933
Au    7.266631   -3.586555   -5.287646
Au    5.712621   -7.418476  -10.601785
Au    7.393727   -5.570793  -11.864856
Au    9.307917   -7.175841  -10.604205
Au    9.334221   -4.348562  -10.194334
Au    8.827010   -4.026683   -7.574937
Au    5.309829   -4.619006  -10.193233
Cr    7.413979   -5.849278   -9.089271
