15
File written by ORCA
Au    6.536764   -8.680107   -4.949732
Au    7.864472   -9.350089   -7.271733
Au    9.568754   -7.294576   -8.332120
Au    8.799001   -7.267503   -5.576910
Au    6.618448   -5.733489   -4.947363
Au    7.984924   -5.140573   -7.271944
Au    4.983151   -5.628848   -7.216267
Au    4.231116   -7.139752   -4.974747
Au    8.378084   -5.455989  -10.005276
Au    6.691373   -7.208976  -11.389993
Au    8.271197   -9.057878  -10.006064
Au    5.424588   -9.189884   -9.802143
Au    4.894451   -8.688358   -7.215728
Au    5.543203   -5.158159   -9.802948
Cr    6.768011   -7.211451   -8.601453
