13
File written by ORCA
Au  -10.995615    2.704507    1.720654
Au  -17.309382    2.745058    1.164409
Au  -15.599122    1.322241    2.934016
Au  -12.650088    0.762814    0.283417
Au  -12.874882    1.223465    3.138588
Au  -15.479858    1.042857   -0.035309
Au  -15.455094    4.406849   -0.049624
Au  -15.581750    4.141197    2.930350
Au  -11.002252    2.690951   -1.036955
Au  -13.754225    2.705319   -1.487045
Au  -12.858782    4.197889    3.140739
Au  -12.629635    4.651439    0.273427
Fe  -14.030038    2.719431    1.320676
