17
Coordinates from ORCA-job pbe
  Au  11.52466388293347      8.55035706895746      8.12940774549646
  Au  9.70982475576039      7.34084144112836      6.41781450643540
  Au  9.90519692657658     10.20689280651390      6.60698673425691
  Au  7.87951557240473      9.16656080507960      5.11502765004363
  Au  7.09433068643993      6.49348103873213      5.75479588821733
  Au  5.74814058527653      7.97062917970779      3.85680248764862
  Au  7.20330434061730     10.69455800288401      7.47727221226657
  Au  9.37342273048913     11.42737961065801      9.03907225010832
  Au  7.33075175954618      7.10202524406794     10.34532763369134
  Au  7.75640082201522      9.85910260658421     10.75373212506610
  Au  8.23561698363831      5.62967940499699      8.08301960580699
  Au  10.50643255875430      9.39318105824617     10.60396839514029
  Au  10.07092390178354      6.76277868980941      9.77504143969117
  Au  5.58822902879468      6.50526222122858      8.11342432712663
  Au  5.39240203742243      8.76699337892602      6.47179013353669
  Au  5.65414193993234      9.08266952395831      9.17422658009965
  Cr  8.62792546761470      8.65240093852092      8.51117757536752
