16
Coordinates from ORCA-job pbe
  Au  9.01478841296783      9.12348444071397      7.34311880476945
  Au  7.01969663321315     10.98789242105152      8.01985511874121
  Au  8.76257377433440     10.13817167822032      9.96896379591170
  Au  6.07876761222524      9.18679867824664      9.99335614820942
  Au  9.81968794230982      7.53414092146084      9.58273005581480
  Au  8.11385432106443      5.44480447035887     10.06454435937290
  Au  8.04458209989030      8.03279626821955     11.62534714007383
  Au  9.97797645877511      6.45687436277170      7.10825006114497
  Au  5.77048918726104      6.61601679930510     11.07628015645162
  Au  7.95474126816098      6.95851807392761      5.32713039411504
  Au  4.54140148380896      9.72067149789550      7.70876884738314
  Au  6.54198540837438      9.17628816099888      5.93456989801886
  Au  5.75014650966102      5.06226929908401      8.68888577301509
  Au  5.22266678389521      6.81344457519219      6.53291552708965
  Au  4.13536892511986      7.36948574758193      9.02320115678272
  Mn  7.44746652893797      6.99690813497116      7.96300564310534
