16
Coordinates from ORCA-job pbe
  Au  9.07850017600657      8.86269959469523      7.34535270761561
  Au  7.20191170439574     10.92270096411589      7.76685393852568
  Au  8.56869420451993     10.07194002226033      9.92019183139108
  Au  5.81604231943721      9.27022986839479     10.40135017631499
  Au  10.20302156592710      7.80548210739286      9.71740006888744
  Au  8.36505065964284      5.71988773815347      9.50015716545290
  Au  8.04270823705006      7.87429774186633     11.47129143285774
  Au  10.08949495937674      6.27889165406778      7.37288119976067
  Au  5.95774650158999      6.30531648876168     10.73157422384238
  Au  7.64238227880999      6.42225061959654      6.17296819611668
  Au  4.75928976824739      9.65148108185478      7.75053565196447
  Au  6.72187423018714      9.06402716603668      5.79067740063558
  Au  5.94470996831648      5.17536684909961      8.16784555922061
  Au  4.91425832968796      7.06251743468023      6.38698040436506
  Au  4.06915297846221      7.33781140000144      9.04287626907648
  Mn  6.82135546834209      7.79366479902189      8.42198665397203
