15
File written by ORCA
Au    6.579475   -9.317523    5.348730
Au    7.015710  -11.894461    6.242078
Au    4.873867  -11.177321    4.041735
Au    5.083663  -13.674156    5.385319
Au    4.706976  -13.600637    2.664935
Au    7.596335  -13.686547    4.175118
Au    8.567589  -10.865534    4.157122
Au    9.405285  -12.741378    2.276871
Au    7.179495  -14.466489    1.533375
Au    6.188815  -10.195182    0.103889
Au    8.098747  -12.314081   -0.152845
Au    8.703779  -10.023232    1.504969
Au    6.217090   -9.179997    2.627426
Au    5.285202  -12.794373    0.132483
Cr    6.773644  -11.839620    2.263894
