15
File written by ORCA
Au   10.245515   -3.070504   -6.657031
Au   12.825801   -3.987151   -7.018789
Au   11.775222   -2.848557   -4.272303
Au   14.216916   -4.256158   -4.646745
Au   14.163384   -1.971403   -3.122011
Au   14.766805   -2.097282   -6.324583
Au   12.195574   -1.333500   -7.631174
Au   14.263048    0.489317   -7.232724
Au   15.538785   -0.000545   -4.660669
Au   11.207309    1.358288   -3.847758
Au   13.669287    2.157047   -5.074190
Au   11.487865    1.200157   -6.713750
Au   10.132133   -0.771272   -5.154894
Au   13.574224    0.640062   -2.641526
Cr   12.860124   -0.519973   -5.052814
