15
Coordinates from ORCA-job pbe
  Au  4.64072705547876      7.34258579977765      5.91696029740228
  Au  6.26644212246271      9.60729289782254      5.77348225434295
  Au  5.95398032433802      9.88446506800343      8.53273225552929
  Au  8.86189592624052      6.75732698123549      9.33399797058937
  Au  6.34591611962327      7.49772838564430     10.01219231999212
  Au  5.33640126710970      5.52248430650364      7.97794323365518
  Au  3.98598989431904      7.90752474949948      8.56440910521342
  Au  10.69746256863994      7.75798945551008      7.44858948081827
  Au  8.65056300758153      9.42177162053571      8.25906297004651
  Au  8.76167126676287      8.47426344465353      5.58089716661216
  Au  10.66846464524103      5.01678365760055      8.04784176519384
  Au  9.73545759168738      5.86605183751385      5.53247273436269
  Au  7.92276695708859      4.90716045547145      7.46267025532616
  Au  7.03594456719532      6.27212768920966      5.09500563468767
  Fe  6.89154066623109      7.58563382101853      7.42617845622811
