15
File written by ORCA
Au   -5.204438  -10.107647  -10.594658
Au   -2.817869   -9.129096   -9.177743
Au   -5.194034   -5.509964  -10.822132
Au   -3.751401   -3.787857   -9.195689
Au   -6.673445   -3.787690   -9.229689
Au   -6.591378   -7.788393  -11.541033
Au   -2.759443   -6.359802   -9.187761
Au   -3.778795   -7.792692  -11.503435
Au   -3.836785   -7.783664   -6.880067
Au   -7.665976   -6.358421   -9.242611
Au   -7.611396   -9.127257   -9.234288
Au   -6.649092   -7.781998   -6.917622
Au   -5.227956  -10.105992   -7.828726
Au   -5.230031   -5.505854   -7.598696
Fe   -5.213622   -7.767887   -9.210710
