11
Coordinates from ORCA-job pbe
  Au  7.78406881971465      7.30234572980297      4.44349281022153
  Au  6.18214197884324      6.18176553123979      6.64703257797728
  Au  9.96189087413744      7.80856051365701      5.94827682261411
  Au  7.24824108044744     10.07938981532453      4.74031627122119
  Au  5.21112373457578      6.57811192757093      4.07877116956397
  Au  5.06509813080268      8.72876776770085      5.85342532279829
  Au  7.70097606879255      9.49769270648168     10.21322792315491
  Au  9.59735052431535      8.59071090066411      8.51129271828022
  Au  7.11647964006733      7.07711157730021      8.94376692949436
  Au  5.75372918414238      9.70974812993242      8.27127498586806
  Mn  7.57490766416108      8.55662598032539      6.82366556880598
