17
Coordinates from ORCA-job pbe
  Au  4.54611271895467      7.32322161486046     10.02508846533898
  Au  5.73194125228298      9.86228379936435     10.02418213734724
  Au  8.05905853279114      9.88357711934175      8.42128082480373
  Au  10.81674681233664      5.93881282271032      7.44482742264202
  Au  9.55414058599052      8.21305618051416      6.47446207376658
  Au  9.88318649047683      7.96153219894671      9.20541178932526
  Au  8.66126489998874      5.36230208462914      9.20207851792682
  Au  7.29404460300491      7.58846257261450     10.06912840237605
  Au  4.11645960313217      7.45290168464848      7.34137098469730
  Au  5.65356628222775      5.82601636216721      5.62777754052542
  Au  5.21370586017211      8.58055858815239      5.02899926513797
  Au  7.71865755099034      7.40111594128179      4.51014166163196
  Au  8.25836990722008      5.46576714092777      6.47108830784163
  Au  6.01825375284073      5.54011838148877      8.40820933846994
  Au  7.62025479403262      9.99321656977662      5.63672056209649
  Au  5.38279442801867     10.14503293989577      7.34111875067924
  Fe  6.83102473553902      7.81484157867969      7.18851767539326
