15
File written by ORCA
Au   11.015345    0.805676    3.105785
Au   11.943478   -0.743352    1.083290
Au   11.898386    1.379725   -0.817318
Au   14.862818    1.869172   -0.790525
Au   13.774975   -0.664988   -0.967281
Au   13.536928   -0.338850    3.391812
Au   15.369777    0.024982    1.292130
Au   13.280657    3.980609    2.905165
Au   15.422691    3.626217    1.234563
Au   10.761807    2.908874    1.191770
Au   12.927289    1.971465    4.891176
Au   10.748846    3.452436    3.896576
Au   15.255935    1.867986    3.385862
Au   12.992143    3.840386   -0.127533
Fe   13.236795    1.662203    1.529827
