15
File written by ORCA
Au   10.842826    0.875497    3.646844
Au   11.872613   -0.711969    1.704965
Au   11.924792    1.373527   -0.236627
Au   14.884079    1.865904   -0.068350
Au   13.806272   -0.672143   -0.250730
Au   13.346374   -0.261094    4.083352
Au   15.283930    0.063188    2.073105
Au   13.115908    4.047814    3.499893
Au   15.340263    3.662654    1.947892
Au   10.687510    2.940681    1.681628
Au   12.661451    2.077561    5.504224
Au   10.536769    3.536977    4.371110
Au   15.063789    1.946653    4.121869
Au   12.982343    3.848118    0.459755
Fe   13.141856    1.702941    2.169711
