17
Coordinates from ORCA-job pbe
  Au  5.64279365143696      9.55697559176750     10.10264766079699
  Au  8.10328540025503      8.41917022002661     10.72872255817036
  Au  5.68454346657536      6.82144263744360     10.62226751927559
  Au  8.17537298754245      5.72211796393972     10.04878540795518
  Au  4.28768009061933      7.54779399126763      8.32442991644746
  Au  5.94115508079406      5.15986519230719      8.31216550332967
  Au  8.64654534672268      5.26985244630142      7.41303445726002
  Au  4.12066567103126      5.60935674159526      6.20276725231385
  Au  9.32605473360827      7.29450878933388      5.64204456090517
  Au  9.88374595204321      9.89242468845726      6.46293612108341
  Au  7.28749117384296      9.20086310321167      5.81427092064744
  Au  6.74179920675387      6.33635775900835      5.70322300950408
  Au  4.70911327904100      8.25220179046232      5.56912720996950
  Au  5.30021872455674     10.17520600442723      7.48099774391940
  Au  7.96136601433804     10.21823691402565      8.51624925937087
  Au  9.60769977374729      7.83508982672947      8.45547591641223
  Mn  6.95063037709078      7.69653783969438      8.21509825263794
