13
File written by ORCA
Au   10.989174   -2.181814    6.383555
Au   13.271111   -2.181016    7.855244
Au   10.766607   -3.596212    2.006953
Au   13.559150   -1.555274    5.214871
Au   12.913110   -1.803533    2.551278
Au   14.787338   -3.603075    3.751400
Au   12.909908   -5.390043    2.544507
Au   10.986682   -5.015823    6.380899
Au   13.549685   -5.650704    5.208368
Au   15.283208   -3.610223    6.466087
Au   13.269221   -5.036767    7.853013
Au    9.432198   -3.594830    4.492101
Mn   12.048011   -3.597868    4.312281
