13
File written by ORCA
Au    0.764692   -2.140777   12.692688
Au    0.793866   -2.133412   15.407868
Au    4.317848   -3.500944   10.098515
Au    3.145045   -1.470436   14.191928
Au    5.015817   -1.691501   12.185670
Au    5.077489   -3.485274   14.415009
Au    5.080501   -5.277435   12.187289
Au    0.813577   -4.974366   12.695484
Au    3.214681   -5.565289   14.189605
Au    3.085684   -3.521921   16.324676
Au    0.843097   -4.988738   15.411449
Au    1.509098   -3.546610   10.354338
Mn    3.100276   -3.518010   12.438122
