13
File written by ORCA
Au    8.856194   12.229925   -5.488192
Au    4.368273   14.208370   -7.273196
Au    6.875035   13.067433   -7.161000
Au    4.731068   11.355365   -7.509463
Au    3.070683   14.669354   -4.821764
Au    7.217529   12.865765   -3.408408
Au    4.782946   13.945956   -2.707293
Au    2.632290   12.205472   -3.478404
Au    2.365782   12.367798   -6.325078
Au    3.822795   10.204258   -5.148124
Au    5.165625   11.083092   -2.877908
Au    6.613342   10.668772   -5.380143
Mn    4.953340   12.751305   -5.099484
