13
File written by ORCA
Au    7.145989  -13.095254    5.964281
Au    2.374530  -14.568041    7.482830
Au    4.992543  -13.706097    7.518062
Au    3.030454  -11.770238    7.745785
Au    1.178090  -14.895749    4.959558
Au    5.570663  -13.558268    3.791959
Au    3.077761  -14.371014    2.949076
Au    1.087749  -12.404435    3.598415
Au    0.641536  -12.525138    6.424587
Au    2.390069  -10.537211    5.338404
Au    3.758272  -11.565838    3.147657
Au    5.095712  -11.300586    5.730219
Mn    3.238548  -13.192001    5.349676
