15
File written by ORCA
Au   -9.205733    3.517809    7.390850
Au  -13.886105    2.171666    4.908362
Au  -11.553631    0.412044    4.862284
Au  -12.940138    0.985978    7.297353
Au  -13.852941    3.583554    7.357105
Au  -10.192982    0.948216    7.309666
Au   -9.188982    2.125447    4.931346
Au  -11.506321    5.131408    7.689889
Au  -10.045746    5.217125    5.298817
Au  -12.936500    5.279947    5.296657
Au   -9.102155    4.029776    2.965377
Au  -11.495021    5.438412    2.894388
Au  -13.931389    4.105687    2.978800
Au  -11.533638    2.582129    3.192738
Mn  -11.532645    2.989935    5.980751
