15
Coordinates from ORCA-job pbe
  Au  5.35195844457387      7.51790015922444      6.88002661592435
  Au  8.83785048370577     10.37200791928739      5.73961318408260
  Au  6.07394331833131     10.27615973964781      6.55983512423022
  Au  7.15882845026252      8.20590286929011      4.90331163958852
  Au  9.78949091330421      7.67493982480219      5.55154075237241
  Au  7.69805168819083      5.94371987503487      6.45825051983855
  Au  6.00217992971983      9.34117482345030      9.27536468541163
  Au  9.69003029342065      6.51127442450738      8.46157898268337
  Au  8.66612389136624      8.71464354778816     10.05458061372863
  Au  8.11542114351790     10.92788156916503      8.43448666182055
  Au  7.11902491133011      6.40988889620041      9.23505084894975
  Au  4.50169548133168      7.04785846471410      9.44798815754243
  Au  10.43887538798719      9.49853335223717      7.96413499028013
  Au  11.94564794616023      7.33067487636596      7.21494482493015
  Fe  7.91979745679763      8.41736443828461      7.48216814861663
