15
Coordinates from ORCA-job pbe
  Au  5.72373926365795      9.71184165301899      5.62437362051526
  Au  6.87782003872556     11.06923454368253      7.73495767689592
  Au  6.59207123332593      7.92978854597760      7.66066240602656
  Au  7.30117068358703      9.46633794636618      9.94530937252107
  Au  8.68954780352577      7.17384155007500      9.34144480863542
  Au  9.46064282876238     10.17689053915166      8.32974259304794
  Au  8.43730184303999     10.34185274847333      5.53200585755530
  Au  11.09985137739738      9.76795778282511      6.11281814485519
  Au  11.25795640858863      8.05244944114401      8.46121475282595
  Au  9.16268560538646      5.66889670184956      5.11495510171228
  Au  11.58796385851658      7.03950561440446      5.78049404235293
  Au  9.64306197016591      8.30869418261784      4.05743971680603
  Au  7.08483041014415      7.41773023137918      4.96088380185146
  Au  10.09336532522359      5.52029428421651      7.70046872757273
  Cr  9.11241484995259      7.92363871481797      6.73527460682590
