13
File written by ORCA
Au    3.089904    6.623228  -16.585822
Au    4.221573    8.054841  -14.445416
Au    1.323296    8.004547  -14.863917
Au    1.358890    5.183684  -14.874334
Au    1.166774    8.826229  -12.340399
Au    1.213491    4.345952  -12.354711
Au    4.254105    5.199690  -14.456255
Au    4.045443    8.553485  -11.823703
Au    2.136829    9.104710   -9.804374
Au    3.032419    6.596164  -10.141691
Au    2.195440    4.065378   -9.821284
Au    4.084635    4.673060  -11.839984
Mn    2.537894    6.602515  -12.894607
