11
Coordinates from ORCA-job pbe
  Au  6.90411486754624      6.84183011551008      5.57465563811540
  Au  8.01550775054373      9.20483713542684      6.33364758977270
  Au  6.33925400502812      5.06696560635942      7.52827190483609
  Au  4.33373464801484      7.03798572017369      6.83192043640563
  Au  6.57850471998473     10.41651078444479      8.27429309333304
  Au  6.05936300496415      4.01692293226014     10.02970746360850
  Au  7.75333488597801      6.22992290988339      9.89004483050283
  Au  8.70385352547121      8.57964295652008      9.10848594992162
  Au  4.37584393729020      8.97155340536520      8.94960447590550
  Au  4.77815450210337      6.38900100422457      9.62385194399667
  Fe  6.54014959307539      7.72841029983176      8.04825514360197
