15
File written by ORCA
Au   10.039428   11.612538   -2.260307
Au    6.749988    8.694293   -0.893633
Au    7.643160    8.866475   -6.177806
Au   10.494586    9.323241   -6.172826
Au    8.785321   10.832491   -4.580391
Au    6.624763    8.670624   -3.665176
Au    7.273140   11.119336   -2.292960
Au    9.349288    7.354642   -4.583035
Au    8.064802    6.568155   -2.281918
Au   11.342276    9.481560   -0.875925
Au    8.803043   10.481119    0.020013
Au   10.831891    7.056251   -2.276458
Au    9.279274    7.690771    0.017732
Au   11.487237    9.508509   -3.647474
Fe    9.052678    9.089104   -2.408927
