15
File written by ORCA
Au   10.305894   11.377917   -2.254259
Au    6.949251    8.536293   -0.889531
Au    7.849096    8.687972   -6.173200
Au   10.710297    9.078838   -6.166618
Au    9.035418   10.627072   -4.575071
Au    6.825055    8.515596   -3.661144
Au    7.528984   10.948661   -2.288469
Au    9.519007    7.137139   -4.577543
Au    8.215441    6.380428   -2.277172
Au   11.558468    9.217413   -0.869240
Au    9.042471   10.275257    0.025328
Au   10.993050    6.804562   -2.270155
Au    9.454207    7.474666    0.023198
Au   11.705553    9.241087   -3.640708
Fe    9.261279    8.877921   -2.403530
