11
Coordinates from ORCA-job pbe
  Au  3.56789292996588      8.78038781944139      8.35688743908324
  Au  6.63033015012483      5.73477430295156      8.78720236468262
  Au  6.91035531665466      7.43451070740568     10.80123938101820
  Au  5.04343265085303      9.61570430745325     10.58001778947572
  Au  5.63018338419316     10.91419353295451      8.08490246432874
  Au  5.35055931597053      9.17712209315227      6.02133722812099
  Au  4.57595746876059      6.57417773564074      6.96169225692785
  Au  7.68272732425704     10.04981619421045      9.89269918997074
  Au  7.21470980026525      7.00439652453990      6.27188333820362
  Au  8.07992985847005      9.50365498484559      7.17645045754202
  Fe  6.13990325048492      8.28532795740460      8.44743512064623
