13
Coordinates from ORCA-job pbe
  Au  6.28766815836807      7.82956298495815     10.80869558737834
  Au  6.49692149645306     10.21133973842567      9.43346596952631
  Au  8.16067070620145      5.84422346357358     10.25246056826737
  Au  9.30937061887177      8.45563665140038     10.25152498365923
  Au  9.05127718161376     10.08375655403024      8.12307040322165
  Au  4.87471350148418      8.08562373914167      8.42306547721546
  Au  8.63004706327640     10.48813637416755      5.37466895170728
  Au  8.65601490288547      5.54780404957925      7.49963006457299
  Au  9.01561049350815      7.88413481710431      6.12311257935350
  Au  6.24315954363407      6.66373551894408      6.44195916178584
  Au  6.33693212302022      9.39815219054621      6.45365155958908
  Au  6.98450714576827     11.91685487617926      7.32454804242807
  Cr  7.57764928491505      7.79125958194956      8.45018090129478
