16
Coordinates from ORCA-job pbe
  Au  9.16829597097898      5.46875232520884      7.27168940505814
  Au  9.15720996962924      8.17285130397896      6.66381863218832
  Au  8.34470163627242     10.81878254124196      6.85871314127571
  Au  6.40458987963268      8.81035137207203      6.52332315043768
  Au  7.33346550408768      6.44995881838311      5.44404035708836
  Au  4.74621319043556      6.48956518387798      6.63815236668483
  Au  6.52288448291932      4.46600439379743      7.29974851062595
  Au  9.17894032795036      9.59148979823731      9.20377385626069
  Au  8.04766076288819      4.80807724933479      9.66518025167448
  Au  10.49870452147354      7.17141697030414      8.95283417665444
  Au  5.73364110841045      8.52700140248706     10.81103533521509
  Au  6.18164298295617      5.87197237390401     11.39985523739483
  Au  8.33005407270953      7.46229624570528     10.61821611885371
  Au  4.35107310949930      8.59276188617963      8.39467071366469
  Au  6.52808161764330     10.29768701245628      8.92900381901931
  Mn  6.33028536251272      6.72373337283066      8.77252908790314
