16
Coordinates from ORCA-job pbe
  Au  9.22223054703870      5.30648180291355      7.10068522768999
  Au  9.00413413214471      8.08370680395706      6.70222567571413
  Au  8.15912162074144     10.70771288914550      6.92848610019572
  Au  6.22470066278327      8.86123399449690      6.22356075507597
  Au  7.14182468696538      6.28715525283477      5.62680927342588
  Au  4.70078341473335      6.49211577890726      6.97200079385413
  Au  6.52124576513434      4.64275504670334      7.86965735898021
  Au  9.33630444734421      9.55122477227316      9.22740874397215
  Au  8.58353635281667      4.90467914394592      9.76296990558898
  Au  10.28050471617890      6.99156849967512      9.05105272675785
  Au  5.50717704466893      8.31528224955575     10.80495107546482
  Au  6.02814517956564      5.66037870749291     10.45447288319987
  Au  8.17838428152509      7.57060984277392     10.83294602602568
  Au  4.36753173764401      8.84546788870236      8.30956362919625
  Au  6.65164320299678     10.14888468691686      9.14798648626411
  Mn  6.95017670771778      7.35344488970486      8.43180749859329
