15
Coordinates from ORCA-job pbe
  Au  7.73562485464349     10.02100102727783      6.32065516996100
  Au  6.71420500080816     10.09964227146919      3.79313345652152
  Au  5.35309815996973      6.26113993352109      5.12605988481994
  Au  7.70631462889924      7.68429074039710      4.66157610115965
  Au  4.75813689213723      7.10000013545488      7.72514585491832
  Au  5.13231581065311      8.97250926846961      5.74576323003561
  Au  5.77079177265834      9.80322067358625      8.35611108351474
  Au  9.29478252510054      5.92423570851454      8.76841376709045
  Au  7.71010489927968      5.62054447052654      6.48085787556283
  Au  8.45692229425051      7.75917849858636     10.69063929845846
  Au  9.56971832214400      7.90255448717543      6.75960521784104
  Au  5.69627286404992      7.73592126166242     10.29089091096406
  Au  8.68930396298032      9.79213966831314      8.87615394997019
  Au  6.54608768096931      5.33483100141417      9.06690910010646
  Fe  7.33727176145625      7.67816194363130      8.15756182907554
